*
*
*
*                       LINUX           Wed Nov 27 12:51:04 2024
*
*
*
*  PROGRAM  advgen
*
*  Name           : advgen - Quantus - (64-bit)
*  Version        : 21.1.0-p101
*  Build Date     : Wed Mar 17 18:53:08 PDT 2021
*
*  HSPICE LIBRARY
*
*!LENGTH_UNITS METERS
*
*
*

*
.SUBCKT hw10_3_deskew VDD VSS CLK CLK_B PHI PHI_B
*
*
*  caps2d version: 10
*
*
*       TRANSISTOR CARDS
*
*
MavD2_1	PHI_B#6	CLK#3	VSS#8	VSS#6	nmos1v#20ivpcell#20gpdk045
+ L=4.5e-08	W=1.2e-07
+ AD=1.92e-14	AS=1.92e-14	PD=5.4e-07	PS=5.4e-07
+ scc=0.002285 scb=0.0257428 sca=23.3367 sb=3.45e-07 sa=1.4e-07
MavD2_2	VDD#14	CLK_B#4	PHI_B#6	VSS#6
+ nmos1v#20ivpcell#20gpdk045	L=4.5e-08	W=1.2e-07
+ AD=1.68e-14	AS=1.68e-14	PD=5.4e-07	PS=5.4e-07
+ scc=9.02095e-05 scb=0.00851426 sca=9.9578 sb=1.4e-07 sa=3.45e-07
MavD2_3	PHI#6	PHI_B#3	VSS#11	VSS#6	nmos1v#20ivpcell#20gpdk045
+ L=4.5e-08	W=2.4e-07
+ AD=3.36e-14	AS=3.36e-14	PD=7.6e-07	PS=7.6e-07
+ scc=8.93047e-05 scb=0.00537585 sca=7.45015 sb=1.4e-07 sa=1.4e-07
MavD2_4	VSS#10	PHI#3	PHI_B#13	VSS#6	nmos1v#20ivpcell#20gpdk045
+ L=4.5e-08	W=2.4e-07
+ AD=3.36e-14	AS=3.36e-14	PD=7.6e-07	PS=7.6e-07
+ scc=8.93047e-05 scb=0.00537585 sca=7.45015 sb=1.4e-07 sa=1.4e-07
MavD2_5	PHI#13	CLK#4	VDD#9	VSS#6	nmos1v#20ivpcell#20gpdk045
+ L=4.5e-08	W=1.2e-07
+ AD=1.92e-14	AS=1.92e-14	PD=5.4e-07	PS=5.4e-07
+ scc=9.02095e-05 scb=0.00851426 sca=9.9578 sb=3.45e-07 sa=1.4e-07
MavD2_6	VSS#2	CLK_B#5	PHI#13	VSS#6	nmos1v#20ivpcell#20gpdk045
+ L=4.5e-08	W=1.2e-07
+ AD=1.68e-14	AS=1.68e-14	PD=5.4e-07	PS=5.4e-07
+ scc=0.002285 scb=0.0257428 sca=23.3367 sb=1.4e-07 sa=3.45e-07
MavD10_1	PHI_B#4	CLK_B#1	VSS#12	VDD#6
+ pmos1v#20ivpcell#20gpdk045	L=4.5e-08	W=2.4e-07
+ AD=3.84e-14	AS=3.84e-14	PD=7.8e-07	PS=7.8e-07
+ scc=0.0044621 scb=0.043336 sca=39.0946 sb=3.45e-07 sa=1.4e-07
MavD10_2	VDD#12	CLK#2	PHI_B#4	VDD#6
+ pmos1v#20ivpcell#20gpdk045	L=4.5e-08	W=2.4e-07
+ AD=3.36e-14	AS=3.36e-14	PD=7.8e-07	PS=7.8e-07
+ scc=0.00226731 scb=0.0261074 sca=25.7157 sb=1.4e-07 sa=3.45e-07
MavD10_3	PHI#4	PHI_B#1	VDD#11	VDD#6
+ pmos1v#20ivpcell#20gpdk045	L=4.5e-08	W=4.8e-07
+ AD=6.72e-14	AS=6.72e-14	PD=1.24e-06	PS=1.24e-06
+ scc=0.00214591 scb=0.0175848 sca=22.3116 sb=1.4e-07 sa=1.4e-07
MavD10_4	VDD#10	PHI#1	PHI_B#11	VDD#6
+ pmos1v#20ivpcell#20gpdk045	L=4.5e-08	W=4.8e-07
+ AD=6.72e-14	AS=6.72e-14	PD=1.24e-06	PS=1.24e-06
+ scc=0.00214591 scb=0.0175848 sca=22.3116 sb=1.4e-07 sa=1.4e-07
MavD10_5	PHI#11	CLK_B#6	VDD#7	VDD#6
+ pmos1v#20ivpcell#20gpdk045	L=4.5e-08	W=2.4e-07
+ AD=3.84e-14	AS=3.84e-14	PD=7.8e-07	PS=7.8e-07
+ scc=0.00226731 scb=0.0261074 sca=25.7157 sb=3.45e-07 sa=1.4e-07
MavD10_6	VSS#1	CLK#6	PHI#11	VDD#6	pmos1v#20ivpcell#20gpdk045
+ L=4.5e-08	W=2.4e-07
+ AD=3.36e-14	AS=3.36e-14	PD=7.8e-07	PS=7.8e-07
+ scc=0.0044621 scb=0.043336 sca=39.0946 sb=1.4e-07 sa=3.45e-07
*
*
*       RESISTOR AND CAP/DIODE CARDS
*
Rj1	CLK_B#10	CLK_B	    0.4829	$X=1.5855 $Y=0.995
Rj2	CLK_B	CLK_B#9	    0.1599	$X=1.0295 $Y=0.995
Rj3	CLK_B#9	CLK_B#8	    0.2766	$X=0.615 $Y=0.995
Rj4	CLK#10	CLK#11	    0.7627	$X=2.005 $Y=1.29
Rj5	CLK#11	CLK	    0.2527	$X=1.5055 $Y=1.29
Rj6	CLK	CLK#12	    0.3614	$X=0.9495 $Y=1.29
Rj8	CLK#11	CLK#9	4.205e-02	$X=1.775 $Y=1.23
Rj9	CLK#12	CLK#8	    0.5134	$X=0.5595 $Y=1.25
Rj10	PHI#12	PHI#14	    0.7688	$X=1.87 $Y=0.685
Rj11	PHI#14	PHI	    0.1555	$X=1.4255 $Y=0.685
Rj12	PHI	PHI#5	    0.5567	$X=1.277 $Y=0.685
Rj13	PHI#10	PHI#14	    0.5000	$X=1.605 $Y=0.655
Rj14	PHI_B#12	PHI_B	    0.5513	$X=1.338 $Y=0.505
Rj15	PHI_B	PHI_B#14	    0.1555	$X=1.1945 $Y=0.505
Rj16	PHI_B#14	PHI_B#5	    0.7688	$X=0.75 $Y=0.505
Rj17	PHI_B#7	PHI_B#14	    0.5000	$X=1.015 $Y=0.535
Rk1	CLK_B#2	CLK_B#8	    0.5059	$X=0.365 $Y=1.14
Rk2	PHI_B#4	PHI_B#5	   31.3638	$X=0.51 $Y=0.6875
Rk3	PHI_B#5	PHI_B#6	   75.1068	$X=0.51 $Y=0.435
Rk4	CLK#8	CLK#1	4.953e-03	$X=0.56 $Y=1.2175
Rk5	CLK_B#9	CLK_B#3	    1.4643	$X=0.835 $Y=0.595
Rk6	PHI_B#7	PHI_B#8	4.069e-03	$X=1.015 $Y=0.535
Rk7	PHI_B#9	PHI_B#10	4.069e-03	$X=1.05 $Y=0.555
Rk8	PHI_B#8	PHI_B#9	1.734e-02	$X=1.0325 $Y=0.545
Rk9	PHI_B#2	PHI_B#10	   45.0000	$X=1.05 $Y=0.555
Rk10	PHI#4	PHI#5	   15.7339	$X=1.18 $Y=0.755
Rk11	PHI#5	PHI#6	   37.7922	$X=1.18 $Y=0.525
Rk12	PHI_B#11	PHI_B#12	   15.8884	$X=1.44 $Y=0.665
Rk13	PHI_B#12	PHI_B#13	   37.6377	$X=1.44 $Y=0.435
Rk14	PHI#7	PHI#8	4.069e-03	$X=1.57 $Y=0.635
Rk15	PHI#9	PHI#10	4.069e-03	$X=1.605 $Y=0.655
Rk16	PHI#8	PHI#9	1.734e-02	$X=1.5875 $Y=0.645
Rk17	PHI#2	PHI#7	   45.0000	$X=1.57 $Y=0.635
Rk18	CLK#5	CLK#9	    1.6192	$X=1.785 $Y=0.67
Rk19	CLK_B#10	CLK_B#7	    0.5020	$X=2.06 $Y=1.14
Rk20	PHI#11	PHI#12	   31.2015	$X=2.11 $Y=0.7775
Rk21	PHI#12	PHI#13	   75.2691	$X=2.11 $Y=0.525
Rk22	CLK#7	CLK#10	5.936e-03	$X=2.255 $Y=1.2175
Rk23	VSS#1	VSS#3	   31.4359	$X=2.315 $Y=0.6475
Rk24	VSS#3	VSS#4	    0.3995	$X=2.32 $Y=0.215
Rk25	VSS#4	VSS	8.471e-02	$X=1.463 $Y=-0.015
Rk26	VSS	VSS#5	8.471e-02	$X=1.157 $Y=-0.015
Rk27	VSS#5	VSS#7	    0.1342	$X=0.76 $Y=-0.015
Rk28	VSS#7	VSS#9	    0.2599	$X=0.305 $Y=0.23
Rk29	VSS#4	VSS#10	   37.7082	$X=1.645 $Y=0.17
Rk30	VSS#5	VSS#11	   37.7082	$X=0.975 $Y=0.17
Rk31	VSS#9	VSS#12	   31.4370	$X=0.305 $Y=0.6175
Rk32	VSS#2	VSS#3	   75.0000	$X=2.315 $Y=0.375
Rk33	VSS#6	VSS#7	   20.6667	$X=0.445 $Y=-0.015
Rk34	VSS#8	VSS#9	   75.0000	$X=0.305 $Y=0.375
Rk36	VDD#2	VDD#3	6.547e-02	$X=1.775 $Y=1.445
Rk37	VDD#3	VDD	8.471e-02	$X=1.463 $Y=1.445
Rk38	VDD	VDD#4	8.471e-02	$X=1.157 $Y=1.445
Rk39	VDD#4	VDD#5	6.547e-02	$X=0.845 $Y=1.445
Rk40	VDD#5	VDD#6	   25.0682	$X=0.685 $Y=1.445
Rk41	VDD#2	VDD#8	    0.4422	$X=1.905 $Y=1.1625
Rk42	VDD#8	VDD#9	   75.5618	$X=1.905 $Y=0.6175
Rk43	VDD#3	VDD#10	   15.8316	$X=1.645 $Y=1.26
Rk44	VDD#4	VDD#11	   15.8114	$X=0.975 $Y=1.26
Rk45	VDD#5	VDD#13	    0.3989	$X=0.715 $Y=1.1625
Rk46	VDD#13	VDD#14	   75.5618	$X=0.715 $Y=0.6175
Rk47	VDD#7	VDD#8	   31.0000	$X=1.905 $Y=0.92
Rk48	VDD#12	VDD#13	   31.0000	$X=0.715 $Y=0.92
Rl1	CLK_B#1	CLK_B#2	   69.2328	$X=0.4075 $Y=1.0645
Rl2	CLK#1	CLK#2	  101.9251	$X=0.6125 $Y=1.1075
Rl3	CLK#2	CLK#3	  201.4887	$X=0.5105 $Y=0.6175
Rl4	CLK_B#3	CLK_B#4	   73.0790	$X=0.6125 $Y=0.285
Rl5	PHI_B#1	PHI_B#2	   64.1533	$X=1.0775 $Y=0.6805
Rl6	PHI_B#2	PHI_B#3	   33.3841	$X=1.0775 $Y=0.465
Rl7	PHI#1	PHI#2	   33.3841	$X=1.5425 $Y=0.7205
Rl8	PHI#2	PHI#3	   64.1533	$X=1.5425 $Y=0.505
Rl9	CLK#4	CLK#5	   73.0790	$X=2.0075 $Y=0.2855
Rl10	CLK_B#5	CLK_B#6	  201.4887	$X=2.1105 $Y=0.6175
Rl11	CLK_B#6	CLK_B#7	   69.2328	$X=2.0075 $Y=1.0645
Rl12	CLK#6	CLK#7	  101.9251	$X=2.2125 $Y=1.107
*
*       CAPACITOR CARDS
*
*
C1	VDD	VSS	3.51492e-17	$X=1.31 $Y=0.7145
C2	CLK	VSS	5.94432e-17	$X=1.257 $Y=0.821
C3	CLK_B	VSS	7.58494e-17	$X=1.3145 $Y=0.6235
C4	PHI	VSS	2.62586e-17	$X=1.3505 $Y=0.587
C5	PHI_B	VSS	2.13329e-17	$X=1.2665 $Y=0.434
C6	CLK#6	VSS	3.66315e-17	$X=2.0425 $Y=0.73
C7	CLK_B#6	VSS	4.15604e-17	$X=1.841 $Y=0.628
C8	PHI#1	VSS	3.33652e-17	$X=1.482 $Y=0.7575
C9	PHI_B#1	VSS	3.65101e-17	$X=1.14 $Y=0.7305
C10	CLK#2	VSS	4.89789e-17	$X=0.787 $Y=0.6325
C11	CLK_B#1	VSS	3.3345e-17	$X=0.5615 $Y=0.7275
C12	CLK_B#5	VSS	5.23765e-17	$X=2.011 $Y=0.3285
C13	CLK#4	VSS	2.69256e-17	$X=1.9205 $Y=0.357
C14	PHI#3	VSS	3.00376e-17	$X=1.4975 $Y=0.241
C15	PHI_B#3	VSS	2.63686e-17	$X=1.1175 $Y=0.2295
C16	CLK_B#4	VSS	2.68116e-17	$X=0.6985 $Y=0.3565
C17	CLK#3	VSS	5.21708e-17	$X=0.608 $Y=0.328
C18	CLK#7	VSS	3.14858e-17	$X=2.068 $Y=0.998
C19	CLK_B#7	VSS	3.08242e-17	$X=1.9565 $Y=0.9645
C20	CLK#5	VSS	2.0413e-16	$X=1.643 $Y=0.174
C21	PHI#2	VSS	1.89032e-17	$X=1.503 $Y=0.509
C22	PHI_B#2	VSS	1.91622e-17	$X=1.116 $Y=0.4755
C23	CLK_B#3	VSS	1.88381e-16	$X=0.964 $Y=0.169
C24	CLK#1	VSS	3.35388e-17	$X=0.729 $Y=0.9885
C25	CLK_B#2	VSS	2.52537e-17	$X=0.535 $Y=0.9645
C26	CLK#10	VSS	1.32279e-16	$X=1.861 $Y=0.7
C27	PHI#12	VSS	1.4511e-16	$X=1.758 $Y=0.363
C28	CLK_B#10	VSS	1.99012e-16	$X=1.617 $Y=0.5305
C29	CLK#9	VSS	2.2138e-16	$X=1.599 $Y=0.6385
C30	PHI#10	VSS	7.96327e-17	$X=1.51 $Y=0.45
C31	PHI_B#12	VSS	2.1204e-16	$X=1.4585 $Y=0.219
C32	PHI#5	VSS	2.4255e-16	$X=1.16 $Y=0.278
C33	PHI_B#7	VSS	6.58608e-17	$X=1.109 $Y=0.348
C34	CLK_B#9	VSS	2.24195e-16	$X=1.066 $Y=0.468
C35	CLK#8	VSS	9.7773e-17	$X=0.7115 $Y=0.935
C36	PHI_B#5	VSS	1.36575e-16	$X=0.861 $Y=0.288
C37	CLK_B#8	VSS	1.58348e-16	$X=0.8065 $Y=0.588
C38	VDD#6	VSS	6.15938e-16	$X=1.3095 $Y=-0.0155
C39	PHI#11	VSS	6.19559e-17	$X=1.785 $Y=0.537
C40	VDD#7	VSS	1.32877e-16	$X=1.6365 $Y=0.4855
C41	VDD#10	VSS	1.29372e-16	$X=1.4575 $Y=0.44
C42	PHI_B#11	VSS	1.04681e-16	$X=1.369 $Y=0.418
C43	PHI#4	VSS	8.10249e-17	$X=1.2485 $Y=0.4415
C44	VDD#11	VSS	1.08366e-16	$X=1.1615 $Y=0.44
C45	VDD#12	VSS	1.20809e-16	$X=0.9825 $Y=0.4855
C46	PHI_B#4	VSS	7.83588e-17	$X=0.8525 $Y=0.5025
C47	PHI#13	VSS	4.35595e-17	$X=1.8805 $Y=0.2785
C48	VDD#9	VSS	8.6301e-17	$X=1.726 $Y=0.2865
C49	PHI_B#13	VSS	4.56938e-17	$X=1.3935 $Y=0.19
C50	PHI#6	VSS	6.9124e-17	$X=1.229 $Y=0.195
C51	VDD#14	VSS	9.05281e-17	$X=0.893 $Y=0.2865
C52	PHI_B#6	VSS	2.67374e-17	$X=0.709 $Y=0.277
C53	PHI_B#8	VSS	5.17888e-17	$X=1.0275 $Y=0.473
C54	PHI_B#9	VSS	3.19848e-17	$X=1.0735 $Y=0.5185
C55	PHI#8	VSS	3.21348e-17	$X=1.5445 $Y=0.5825
C56	PHI#9	VSS	4.92274e-17	$X=1.5915 $Y=0.5335
C57	VDD#2	VSS	1.2309e-16	$X=1.4525 $Y=0.2375
C58	VDD#3	VSS	2.41632e-17	$X=1.472 $Y=0.6795
C59	VDD#4	VSS	2.06222e-17	$X=1.147 $Y=0.6795
C60	VDD#5	VSS	2.64492e-17	$X=0.946 $Y=0.8295
C61	CLK#11	VSS	4.26251e-17	$X=1.615 $Y=0.8355
C62	CLK#12	VSS	1.00215e-16	$X=0.8935 $Y=0.5895
*
*
.ENDS hw10_3_deskew
*
