*
*
*
*                       LINUX           Thu Nov 28 08:57:40 2024
*
*
*
*  PROGRAM  advgen
*
*  Name           : advgen - Quantus - (64-bit)
*  Version        : 21.1.0-p101
*  Build Date     : Wed Mar 17 18:53:08 PDT 2021
*
*  HSPICE LIBRARY
*
*!LENGTH_UNITS METERS
*
*
*

*
.SUBCKT clk_div4 VDD VSS CLK RST CLK_out CLK_out_b
*
*
*  caps2d version: 10
*
*
*       TRANSISTOR CARDS
*
*
MI1/avD2_1	I1/avC5#13	avC9#2	avC12#5	VSS#6
+ nmos1v#20ivpcell#20gpdk045	L=4.5e-08	W=1.2e-07
+ AD=1.68e-14	AS=1.68e-14	PD=5.2e-07	PS=5.2e-07
+ scc=1.37676e-05 scb=0.00310863 sca=5.62297 sb=1.4e-07 sa=1.4e-07
MI1/avD2_2	VSS#58	I1/avC3#3	I1/avC5#8	VSS#6
+ nmos1v#20ivpcell#20gpdk045	L=5.7e-07	W=1.2e-07
+ AD=1.68e-14	AS=1.68e-14	PD=5.2e-07	PS=5.2e-07
+ scc=1.32927e-05 scb=0.00253388 sca=4.14934 sb=1.4e-07 sa=1.4e-07
MI1/avD2_3	VSS#57	RST#5	I1/avC5#15	VSS#6
+ nmos1v#20ivpcell#20gpdk045	L=4.5e-08	W=1.2e-07
+ AD=1.68e-14	AS=1.68e-14	PD=5.2e-07	PS=5.2e-07
+ scc=1.32927e-05 scb=0.00253177 sca=3.86404 sb=1.4e-07 sa=1.4e-07
MI1/avD2_4	I1/avC3#12	I1/avC5#7	VSS#56	VSS#6
+ nmos1v#20ivpcell#20gpdk045	L=4.5e-08	W=2.4e-07
+ AD=3.84e-14	AS=3.84e-14	PD=7.8e-07	PS=7.8e-07
+ scc=6.29388e-05 scb=0.00451408 sca=4.94704 sb=3.45e-07 sa=1.4e-07
MI1/avD2_5	VSS#55	I1/avC5	I1/avC3#12	VSS#6
+ nmos1v#20ivpcell#20gpdk045	L=4.5e-08	W=2.4e-07
+ AD=3.36e-14	AS=3.36e-14	PD=7.8e-07	PS=7.8e-07
+ scc=6.29388e-05 scb=0.00451408 sca=4.92694 sb=1.4e-07 sa=3.45e-07
MI1/avD2_6	I1/avC9#13	CLK#7	I1/avC3#6	VSS#6
+ nmos1v#20ivpcell#20gpdk045	L=4.5e-08	W=1.2e-07
+ AD=1.68e-14	AS=1.68e-14	PD=5.2e-07	PS=5.2e-07
+ scc=1.32927e-05 scb=0.00253177 sca=3.74286 sb=1.4e-07 sa=1.4e-07
MI1/avD2_7	VSS#54	I1/avC6#3	I1/avC9#8	VSS#6
+ nmos1v#20ivpcell#20gpdk045	L=5.7e-07	W=1.2e-07
+ AD=1.68e-14	AS=1.68e-14	PD=5.2e-07	PS=5.2e-07
+ scc=1.32927e-05 scb=0.00253177 sca=3.72343 sb=1.4e-07 sa=1.4e-07
MI1/avD2_8	I1/avC6#8	I1/avC9#7	VSS#53	VSS#6
+ nmos1v#20ivpcell#20gpdk045	L=4.5e-08	W=2.4e-07
+ AD=3.84e-14	AS=3.84e-14	PD=7.8e-07	PS=7.8e-07
+ scc=6.29388e-05 scb=0.00451408 sca=4.87985 sb=3.45e-07 sa=1.4e-07
MI1/avD2_9	VSS#52	I1/avC9	I1/avC6#8	VSS#6
+ nmos1v#20ivpcell#20gpdk045	L=4.5e-08	W=2.4e-07
+ AD=3.36e-14	AS=3.36e-14	PD=7.8e-07	PS=7.8e-07
+ scc=6.29388e-05 scb=0.00451408 sca=4.88566 sb=1.4e-07 sa=3.45e-07
MI1/avD2_10	avC12#24	I1/avC6#4	VSS#51	VSS#6
+ nmos1v#20ivpcell#20gpdk045	L=4.5e-08	W=2.4e-07
+ AD=3.36e-14	AS=3.36e-14	PD=7.6e-07	PS=7.6e-07
+ scc=6.29388e-05 scb=0.00451408 sca=4.91329 sb=1.4e-07 sa=1.4e-07
MI1/avD2_11	avC13#13	avC12#14	VSS#50	VSS#6
+ nmos1v#20ivpcell#20gpdk045	L=4.5e-08	W=2.4e-07
+ AD=3.36e-14	AS=3.36e-14	PD=7.6e-07	PS=7.6e-07
+ scc=6.29388e-05 scb=0.00451408 sca=4.95743 sb=1.4e-07 sa=1.4e-07
MI2/avD2_1	I2/avC5#12	avC12#2	avC11#3	VSS#6
+ nmos1v#20ivpcell#20gpdk045	L=4.5e-08	W=1.2e-07
+ AD=1.68e-14	AS=1.68e-14	PD=5.2e-07	PS=5.2e-07
+ scc=1.37676e-05 scb=0.00310863 sca=5.62297 sb=1.4e-07 sa=1.4e-07
MI2/avD2_2	VSS#33	I2/avC3#2	I2/avC5#8	VSS#6
+ nmos1v#20ivpcell#20gpdk045	L=5.7e-07	W=1.2e-07
+ AD=1.68e-14	AS=1.68e-14	PD=5.2e-07	PS=5.2e-07
+ scc=1.32927e-05 scb=0.00253388 sca=4.14934 sb=1.4e-07 sa=1.4e-07
MI2/avD2_3	VSS#32	RST#7	I2/avC5#15	VSS#6
+ nmos1v#20ivpcell#20gpdk045	L=4.5e-08	W=1.2e-07
+ AD=1.68e-14	AS=1.68e-14	PD=5.2e-07	PS=5.2e-07
+ scc=1.32927e-05 scb=0.00253177 sca=3.86404 sb=1.4e-07 sa=1.4e-07
MI2/avD2_4	I2/avC3#9	I2/avC5#6	VSS#31	VSS#6
+ nmos1v#20ivpcell#20gpdk045	L=4.5e-08	W=2.4e-07
+ AD=3.84e-14	AS=3.84e-14	PD=7.8e-07	PS=7.8e-07
+ scc=6.29388e-05 scb=0.00451408 sca=4.94704 sb=3.45e-07 sa=1.4e-07
MI2/avD2_5	VSS#30	I2/avC5#5	I2/avC3#9	VSS#6
+ nmos1v#20ivpcell#20gpdk045	L=4.5e-08	W=2.4e-07
+ AD=3.36e-14	AS=3.36e-14	PD=7.8e-07	PS=7.8e-07
+ scc=6.29388e-05 scb=0.00451408 sca=4.92694 sb=1.4e-07 sa=3.45e-07
MI2/avD2_6	I2/avC9#12	avC13#4	I2/avC3#10	VSS#6
+ nmos1v#20ivpcell#20gpdk045	L=4.5e-08	W=1.2e-07
+ AD=1.68e-14	AS=1.68e-14	PD=5.2e-07	PS=5.2e-07
+ scc=1.32927e-05 scb=0.00253177 sca=3.74286 sb=1.4e-07 sa=1.4e-07
MI2/avD2_7	VSS#29	I2/avC6#2	I2/avC9#8	VSS#6
+ nmos1v#20ivpcell#20gpdk045	L=5.7e-07	W=1.2e-07
+ AD=1.68e-14	AS=1.68e-14	PD=5.2e-07	PS=5.2e-07
+ scc=1.32927e-05 scb=0.00253177 sca=3.72343 sb=1.4e-07 sa=1.4e-07
MI2/avD2_8	I2/avC6#8	I2/avC9#6	VSS#28	VSS#6
+ nmos1v#20ivpcell#20gpdk045	L=4.5e-08	W=2.4e-07
+ AD=3.84e-14	AS=3.84e-14	PD=7.8e-07	PS=7.8e-07
+ scc=6.29388e-05 scb=0.00451408 sca=4.87985 sb=3.45e-07 sa=1.4e-07
MI2/avD2_9	VSS#27	I2/avC9#5	I2/avC6#8	VSS#6
+ nmos1v#20ivpcell#20gpdk045	L=4.5e-08	W=2.4e-07
+ AD=3.36e-14	AS=3.36e-14	PD=7.8e-07	PS=7.8e-07
+ scc=6.29388e-05 scb=0.00451408 sca=4.88566 sb=1.4e-07 sa=3.45e-07
MI2/avD2_10	avC11#18	I2/avC6#6	VSS#26	VSS#6
+ nmos1v#20ivpcell#20gpdk045	L=4.5e-08	W=2.4e-07
+ AD=3.36e-14	AS=3.36e-14	PD=7.6e-07	PS=7.6e-07
+ scc=6.29388e-05 scb=0.00451408 sca=4.91329 sb=1.4e-07 sa=1.4e-07
MI2/avD2_11	avC14#10	avC11#9	VSS#25	VSS#6
+ nmos1v#20ivpcell#20gpdk045	L=4.5e-08	W=2.4e-07
+ AD=3.36e-14	AS=3.36e-14	PD=7.6e-07	PS=7.6e-07
+ scc=6.29388e-05 scb=0.00451408 sca=4.95743 sb=1.4e-07 sa=1.4e-07
MI3/avD2_1	avC8#10	avC14#3	VSS#22	VSS#6
+ nmos1v#20ivpcell#20gpdk045	L=4.5e-08	W=1.2e-07
+ AD=1.92e-14	AS=1.92e-14	PD=5.4e-07	PS=5.4e-07
+ scc=1.32927e-05 scb=0.00253178 sca=3.89208 sb=3.45e-07 sa=1.4e-07
MI3/avD2_2	VDD#30	avC11#13	avC8#10	VSS#6
+ nmos1v#20ivpcell#20gpdk045	L=4.5e-08	W=1.2e-07
+ AD=1.68e-14	AS=1.68e-14	PD=5.4e-07	PS=5.4e-07
+ scc=1.32927e-05 scb=0.00253179 sca=3.949 sb=1.4e-07 sa=3.45e-07
MI3/avD2_3	avC7#11	avC8#7	VSS#21	VSS#6
+ nmos1v#20ivpcell#20gpdk045	L=4.5e-08	W=2.4e-07
+ AD=3.36e-14	AS=3.36e-14	PD=7.6e-07	PS=7.6e-07
+ scc=6.29388e-05 scb=0.00451566 sca=5.33762 sb=1.4e-07 sa=1.4e-07
MI3/avD2_4	VSS#20	avC7#7	avC8#18	VSS#6
+ nmos1v#20ivpcell#20gpdk045	L=4.5e-08	W=2.4e-07
+ AD=3.36e-14	AS=3.36e-14	PD=7.6e-07	PS=7.6e-07
+ scc=6.29523e-05 scb=0.00462342 sca=6.03123 sb=1.4e-07 sa=1.4e-07
MI3/avD2_5	avC7#18	avC14#4	VDD#24	VSS#6
+ nmos1v#20ivpcell#20gpdk045	L=4.5e-08	W=1.2e-07
+ AD=1.92e-14	AS=1.92e-14	PD=5.4e-07	PS=5.4e-07
+ scc=8.44374e-05 scb=0.00806432 sca=8.88951 sb=3.45e-07 sa=1.4e-07
MI3/avD2_6	VSS#2	avC11#14	avC7#18	VSS#6
+ nmos1v#20ivpcell#20gpdk045	L=4.5e-08	W=1.2e-07
+ AD=1.68e-14	AS=1.68e-14	PD=5.4e-07	PS=5.4e-07
+ scc=0.00227923 scb=0.0252929 sca=22.3253 sb=1.4e-07 sa=3.45e-07
MavD2_1	avC9#5	CLK#1	VSS#47	VSS#6	nmos1v#20ivpcell#20gpdk045
+ L=4.5e-08	W=1.2e-07
+ AD=1.68e-14	AS=1.68e-14	PD=5.2e-07	PS=5.2e-07
+ scc=0.00190111 scb=0.0273602 sca=22.4152 sb=1.4e-07 sa=1.4e-07
MavD2_2	avC10#7	RST#3	VSS#19	VSS#6	nmos1v#20ivpcell#20gpdk045
+ L=4.5e-08	W=1.2e-07
+ AD=1.68e-14	AS=1.68e-14	PD=5.2e-07	PS=5.2e-07
+ scc=0.00190111 scb=0.0273602 sca=22.4152 sb=1.4e-07 sa=1.4e-07
MavD2_3	CLK_out_b#1	avC7	VSS#49	VSS#6	nmos1v#20ivpcell#20gpdk045
+ L=4.5e-08	W=2.4e-07
+ AD=3.36e-14	AS=3.36e-14	PD=7.6e-07	PS=7.6e-07
+ scc=6.29388e-05 scb=0.00451408 sca=5.04364 sb=1.4e-07 sa=1.4e-07
MavD2_4	CLK_out#2	avC8	VSS#48	VSS#6	nmos1v#20ivpcell#20gpdk045
+ L=4.5e-08	W=2.4e-07
+ AD=3.36e-14	AS=3.36e-14	PD=7.6e-07	PS=7.6e-07
+ scc=6.29388e-05 scb=0.00451431 sca=5.20722 sb=1.4e-07 sa=1.4e-07
MI1/avD10_1	I1/avC5#12	CLK#5	avC12#7	VDD#7
+ pmos1v#20ivpcell#20gpdk045	L=4.5e-08	W=1.2e-07
+ AD=1.68e-14	AS=1.68e-14	PD=5.2e-07	PS=5.2e-07
+ scc=1.95405e-05 scb=0.00357981 sca=6.65243 sb=1.4e-07 sa=1.4e-07
MI1/avD10_2	VDD#49	I1/avC3#2	I1/avC5#9	VDD#7
+ pmos1v#20ivpcell#20gpdk045	L=1.8e-07	W=1.2e-07
+ AD=1.68e-14	AS=1.68e-14	PD=5.2e-07	PS=5.2e-07
+ scc=0.00707725 scb=0.0317722 sca=46.6385 sb=1.4e-07 sa=1.4e-07
MI1/avD10_3	I1/avC3#9	I1/avC5#6	VDD#47	VDD#7
+ pmos1v#20ivpcell#20gpdk045	L=4.5e-08	W=4.8e-07
+ AD=7.68e-14	AS=7.68e-14	PD=1.26e-06	PS=1.26e-06
+ scc=0.00211401 scb=0.0149097 sca=18.101 sb=3.45e-07 sa=1.4e-07
MI1/avD10_4	VDD#45	I1/avC5#5	I1/avC3#9	VDD#7
+ pmos1v#20ivpcell#20gpdk045	L=4.5e-08	W=4.8e-07
+ AD=6.72e-14	AS=6.72e-14	PD=1.26e-06	PS=1.26e-06
+ scc=0.00211401 scb=0.0149097 sca=18.0809 sb=1.4e-07 sa=3.45e-07
MI1/avD10_5	I1/avC9#12	avC9#4	I1/avC3#11	VDD#7
+ pmos1v#20ivpcell#20gpdk045	L=4.5e-08	W=1.2e-07
+ AD=1.68e-14	AS=1.68e-14	PD=5.2e-07	PS=5.2e-07
+ scc=1.90656e-05 scb=0.00300296 sca=4.77232 sb=1.4e-07 sa=1.4e-07
MI1/avD10_6	VDD#43	I1/avC6#2	I1/avC9#9	VDD#7
+ pmos1v#20ivpcell#20gpdk045	L=1.8e-07	W=1.2e-07
+ AD=1.68e-14	AS=1.68e-14	PD=5.2e-07	PS=5.2e-07
+ scc=0.00707725 scb=0.0317667 sca=46.0652 sb=1.4e-07 sa=1.4e-07
MI1/avD10_7	I1/avC9#15	avC10	VDD#41	VDD#7
+ pmos1v#20ivpcell#20gpdk045	L=4.5e-08	W=1.2e-07
+ AD=1.68e-14	AS=1.68e-14	PD=5.2e-07	PS=5.2e-07
+ scc=0.00707725 scb=0.0317667 sca=46.0621 sb=1.4e-07 sa=1.4e-07
MI1/avD10_8	I1/avC6#10	I1/avC9#6	VDD#39	VDD#7
+ pmos1v#20ivpcell#20gpdk045	L=4.5e-08	W=4.8e-07
+ AD=7.68e-14	AS=7.68e-14	PD=1.26e-06	PS=1.26e-06
+ scc=0.00211401 scb=0.0149097 sca=18.0338 sb=3.45e-07 sa=1.4e-07
MI1/avD10_9	VDD#37	I1/avC9#5	I1/avC6#10	VDD#7
+ pmos1v#20ivpcell#20gpdk045	L=4.5e-08	W=4.8e-07
+ AD=6.72e-14	AS=6.72e-14	PD=1.26e-06	PS=1.26e-06
+ scc=0.00211401 scb=0.0149097 sca=18.0396 sb=1.4e-07 sa=3.45e-07
MI1/avD10_10	avC12#23	I1/avC6#6	VDD#35	VDD#7
+ pmos1v#20ivpcell#20gpdk045	L=4.5e-08	W=4.8e-07
+ AD=6.72e-14	AS=6.72e-14	PD=1.24e-06	PS=1.24e-06
+ scc=0.00211401 scb=0.0149097 sca=18.0673 sb=1.4e-07 sa=1.4e-07
MI1/avD10_11	avC13#15	avC12#17	VDD#33	VDD#7
+ pmos1v#20ivpcell#20gpdk045	L=4.5e-08	W=4.8e-07
+ AD=6.72e-14	AS=6.72e-14	PD=1.24e-06	PS=1.24e-06
+ scc=0.00211401 scb=0.0149097 sca=18.1114 sb=1.4e-07 sa=1.4e-07
MI2/avD10_1	I2/avC5#13	avC13#2	avC11	VDD#7
+ pmos1v#20ivpcell#20gpdk045	L=4.5e-08	W=1.2e-07
+ AD=1.68e-14	AS=1.68e-14	PD=5.2e-07	PS=5.2e-07
+ scc=1.95405e-05 scb=0.00357981 sca=6.65243 sb=1.4e-07 sa=1.4e-07
MI2/avD10_2	VDD#48	I2/avC3#3	I2/avC5#9	VDD#7
+ pmos1v#20ivpcell#20gpdk045	L=1.8e-07	W=1.2e-07
+ AD=1.68e-14	AS=1.68e-14	PD=5.2e-07	PS=5.2e-07
+ scc=0.00707725 scb=0.0317722 sca=46.6385 sb=1.4e-07 sa=1.4e-07
MI2/avD10_3	I2/avC3#11	I2/avC5#7	VDD#46	VDD#7
+ pmos1v#20ivpcell#20gpdk045	L=4.5e-08	W=4.8e-07
+ AD=7.68e-14	AS=7.68e-14	PD=1.26e-06	PS=1.26e-06
+ scc=0.00211401 scb=0.0149097 sca=18.101 sb=3.45e-07 sa=1.4e-07
MI2/avD10_4	VDD#44	I2/avC5	I2/avC3#11	VDD#7
+ pmos1v#20ivpcell#20gpdk045	L=4.5e-08	W=4.8e-07
+ AD=6.72e-14	AS=6.72e-14	PD=1.26e-06	PS=1.26e-06
+ scc=0.00211401 scb=0.0149097 sca=18.0809 sb=1.4e-07 sa=3.45e-07
MI2/avD10_5	I2/avC9#13	avC12#4	I2/avC3#6	VDD#7
+ pmos1v#20ivpcell#20gpdk045	L=4.5e-08	W=1.2e-07
+ AD=1.68e-14	AS=1.68e-14	PD=5.2e-07	PS=5.2e-07
+ scc=1.90656e-05 scb=0.00300296 sca=4.77232 sb=1.4e-07 sa=1.4e-07
MI2/avD10_6	VDD#42	I2/avC6#3	I2/avC9#9	VDD#7
+ pmos1v#20ivpcell#20gpdk045	L=1.8e-07	W=1.2e-07
+ AD=1.68e-14	AS=1.68e-14	PD=5.2e-07	PS=5.2e-07
+ scc=0.00707725 scb=0.0317667 sca=46.0652 sb=1.4e-07 sa=1.4e-07
MI2/avD10_7	I2/avC9#15	avC10#3	VDD#40	VDD#7
+ pmos1v#20ivpcell#20gpdk045	L=4.5e-08	W=1.2e-07
+ AD=1.68e-14	AS=1.68e-14	PD=5.2e-07	PS=5.2e-07
+ scc=0.00707725 scb=0.0317667 sca=46.0621 sb=1.4e-07 sa=1.4e-07
MI2/avD10_8	I2/avC6#10	I2/avC9#7	VDD#38	VDD#7
+ pmos1v#20ivpcell#20gpdk045	L=4.5e-08	W=4.8e-07
+ AD=7.68e-14	AS=7.68e-14	PD=1.26e-06	PS=1.26e-06
+ scc=0.00211401 scb=0.0149097 sca=18.0338 sb=3.45e-07 sa=1.4e-07
MI2/avD10_9	VDD#36	I2/avC9	I2/avC6#10	VDD#7
+ pmos1v#20ivpcell#20gpdk045	L=4.5e-08	W=4.8e-07
+ AD=6.72e-14	AS=6.72e-14	PD=1.26e-06	PS=1.26e-06
+ scc=0.00211401 scb=0.0149097 sca=18.0396 sb=1.4e-07 sa=3.45e-07
MI2/avD10_10	avC11#20	I2/avC6#4	VDD#34	VDD#7
+ pmos1v#20ivpcell#20gpdk045	L=4.5e-08	W=4.8e-07
+ AD=6.72e-14	AS=6.72e-14	PD=1.24e-06	PS=1.24e-06
+ scc=0.00211401 scb=0.0149097 sca=18.0673 sb=1.4e-07 sa=1.4e-07
MI2/avD10_11	avC14#8	avC11#6	VDD#32	VDD#7
+ pmos1v#20ivpcell#20gpdk045	L=4.5e-08	W=4.8e-07
+ AD=6.72e-14	AS=6.72e-14	PD=1.24e-06	PS=1.24e-06
+ scc=0.00211401 scb=0.0149097 sca=18.1114 sb=1.4e-07 sa=1.4e-07
MI3/avD10_1	avC8#8	avC11#10	VSS#24	VDD#7
+ pmos1v#20ivpcell#20gpdk045	L=4.5e-08	W=2.4e-07
+ AD=3.84e-14	AS=3.84e-14	PD=7.8e-07	PS=7.8e-07
+ scc=0.00219428 scb=0.0196486 sca=18.7768 sb=3.45e-07 sa=1.4e-07
MI3/avD10_2	VDD#28	avC14#2	avC8#8	VDD#7
+ pmos1v#20ivpcell#20gpdk045	L=4.5e-08	W=2.4e-07
+ AD=3.36e-14	AS=3.36e-14	PD=7.8e-07	PS=7.8e-07
+ scc=0.00219428 scb=0.0196486 sca=18.8338 sb=1.4e-07 sa=3.45e-07
MI3/avD10_3	avC7#9	avC8#5	VDD#26	VDD#7	pmos1v#20ivpcell#20gpdk045
+ L=4.5e-08	W=4.8e-07
+ AD=6.72e-14	AS=6.72e-14	PD=1.24e-06	PS=1.24e-06
+ scc=0.00211401 scb=0.0149113 sca=18.4916 sb=1.4e-07 sa=1.4e-07
MI3/avD10_4	VDD#25	avC7#5	avC8#16	VDD#7
+ pmos1v#20ivpcell#20gpdk045	L=4.5e-08	W=4.8e-07
+ AD=6.72e-14	AS=6.72e-14	PD=1.24e-06	PS=1.24e-06
+ scc=0.00211403 scb=0.015019 sca=19.1852 sb=1.4e-07 sa=1.4e-07
MI3/avD10_5	avC7#16	avC11#15	VDD#22	VDD#7
+ pmos1v#20ivpcell#20gpdk045	L=4.5e-08	W=2.4e-07
+ AD=3.84e-14	AS=3.84e-14	PD=7.8e-07	PS=7.8e-07
+ scc=0.00226543 scb=0.0251811 sca=23.7743 sb=3.45e-07 sa=1.4e-07
MI3/avD10_6	VSS#1	avC14#6	avC7#16	VDD#7
+ pmos1v#20ivpcell#20gpdk045	L=4.5e-08	W=2.4e-07
+ AD=3.36e-14	AS=3.36e-14	PD=7.8e-07	PS=7.8e-07
+ scc=0.00446022 scb=0.0424097 sca=37.2101 sb=1.4e-07 sa=3.45e-07
MI10/avD10_1	CLK_out#1	avC8#4	VDD#27	VDD#7
+ pmos1v#20ivpcell#20gpdk045	L=4.5e-08	W=4.8e-07
+ AD=6.72e-14	AS=6.72e-14	PD=1.24e-06	PS=1.24e-06
+ scc=2.114013e-03 scb=1.490992e-02 sca=1.836119e+01 sb=1.4e-07 sa=1.4e-07
MI9/avD10_1	CLK_out_b#2	avC7#4	VDD#31	VDD#7
+ pmos1v#20ivpcell#20gpdk045	L=4.5e-08	W=4.8e-07
+ AD=6.72e-14	AS=6.72e-14	PD=1.24e-06	PS=1.24e-06
+ scc=2.114013e-03 scb=1.490969e-02 sca=1.819761e+01 sb=1.4e-07 sa=1.4e-07
MavD10_1	avC10#5	RST#1	VDD#21	VDD#7
+ pmos1v#20ivpcell#20gpdk045	L=4.5e-08	W=2.4e-07
+ AD=3.36e-14	AS=3.36e-14	PD=7.6e-07	PS=7.6e-07
+ scc=0.00187781 scb=0.0261429 sca=22.378 sb=1.4e-07 sa=1.4e-07
MavD10_2	avC9#7	CLK#3	VDD#50	VDD#7	pmos1v#20ivpcell#20gpdk045
+ L=4.5e-08	W=2.4e-07
+ AD=3.36e-14	AS=3.36e-14	PD=7.6e-07	PS=7.6e-07
+ scc=0.00187781 scb=0.0261429 sca=22.378 sb=1.4e-07 sa=1.4e-07
*
*
*       RESISTOR AND CAP/DIODE CARDS
*
Rd2	VSS	VSS#70	6.119e-02	$X=9.385 $Y=1.157
Rd3	VSS	VSS#69	6.119e-02	$X=9.385 $Y=2.463
Re1	VDD	VDD#55	8.333e-02	$X=4.825 $Y=1.81
Re2	VSS#69	VSS#67	8.333e-02	$X=9.385 $Y=3.27
Re3	VSS#68	VSS#70	8.333e-02	$X=9.385 $Y=0.35
Rf1	VDD#55	VDD#54	8.333e-02	$X=4.825 $Y=1.81
Rf2	VSS#67	VSS#65	8.333e-02	$X=9.385 $Y=3.27
Rf3	VSS#66	VSS#68	8.333e-02	$X=9.385 $Y=0.35
Rg1	VDD#54	VDD#53	8.333e-02	$X=4.825 $Y=1.81
Rg2	VSS#65	VSS#63	8.333e-02	$X=9.385 $Y=3.27
Rg3	VSS#64	VSS#66	8.333e-02	$X=9.385 $Y=0.35
Rh1	VDD#52	VDD#53	8.333e-02	$X=4.825 $Y=1.81
Rh2	avC13#18	avC13#8	    1.7125	$X=4.4125 $Y=1.44
Rh3	avC12#30	avC12#12	    2.6048	$X=4.4475 $Y=0.91
Rh4	avC12#31	avC12#29	    0.2493	$X=6.8325 $Y=1.585
Rh5	avC13#19	avC13#17	    0.6466	$X=6.8375 $Y=1.81
Rh6	VSS#63	VSS#61	8.333e-02	$X=9.385 $Y=3.27
Rh7	VSS#62	VSS#64	8.333e-02	$X=9.385 $Y=0.35
Ri1	RST#12	RST#13	    1.9664	$X=1.83 $Y=1.835
Ri2	avC10#8	avC10#9	    2.1897	$X=1.98 $Y=1.81
Ri3	avC12#9	avC12#10	    1.2901	$X=2.175 $Y=2.71
Ri4	avC11#4	avC11#5	    1.3196	$X=2.14 $Y=0.91
Ri6	avC12#12	avC12#13	    0.5000	$X=2.325 $Y=1.06
Ri7	avC13#8	avC13#9	    1.0000	$X=2.635 $Y=1.36
Ri8	VDD#51	VDD#52	8.333e-02	$X=4.825 $Y=1.81
Ri9	avC13#17	avC13#18	    1.1909	$X=6.165 $Y=1.6125
Ri10	avC12#29	avC12#30	    1.3262	$X=6.57 $Y=1.2475
Ri11	avC11#27	avC11#24	    0.2658	$X=7.095 $Y=0.91
Ri12	avC12#25	avC12#28	    0.2778	$X=7.12 $Y=2.6975
Ri13	avC12#28	avC12#31	    0.8943	$X=7.12 $Y=1.9975
Ri14	avC13#16	avC13#19	    0.9306	$X=7.535 $Y=2.26
Ri15	avC14#17	avC14#14	    0.3503	$X=7.535 $Y=1.2725
Ri16	avC7#22	avC7#19	    0.7572	$X=7.885 $Y=1.8475
Ri17	avC8#21	avC8#19	    1.3683	$X=8.35 $Y=1.7325
Ri18	VSS#61	VSS#59	8.333e-02	$X=9.385 $Y=3.27
Ri19	VSS#60	VSS#62	8.333e-02	$X=9.385 $Y=0.35
Rj1	avC12#10	avC12#6	    0.5614	$X=2.125 $Y=2.41
Rj2	avC11#5	avC11#2	    0.5614	$X=2.125 $Y=1.21
Rj3	avC12#18	avC12#13	    0.9396	$X=2.6875 $Y=1.06
Rj4	avC12#13	avC12#8	4.774e-02	$X=2.285 $Y=1.06
Rj5	avC9#9	avC9#8	    0.9873	$X=2.6475 $Y=2.56
Rj6	avC9#8	avC9#6	    0.7234	$X=2.055 $Y=2.56
Rj7	avC13#10	avC13#9	    0.3809	$X=2.9475 $Y=1.36
Rj8	avC13#9	avC13#7	    0.6964	$X=2.45 $Y=1.36
Rj9	CLK#16	CLK	    0.4900	$X=2.828 $Y=2.26
Rj10	CLK	CLK#17	8.730e-02	$X=2.3695 $Y=2.26
Rj11	CLK#17	CLK#8	    0.8310	$X=1.9775 $Y=2.26
Rj12	CLK#13	CLK#17	    0.5000	$X=2.265 $Y=2.26
Rj13	RST#14	RST#12	    1.6250	$X=2.7625 $Y=2.71
Rj14	RST#15	RST	    1.1345	$X=3.154 $Y=0.91
Rj15	RST	RST#13	    0.4858	$X=2.2605 $Y=0.91
Rj16	RST#13	RST#8	    0.5764	$X=1.7475 $Y=0.91
Rj17	I1/avC5#16	I1/avC5#14	    0.6719	$X=3.695 $Y=2.41
Rj18	I1/avC5#14	I1/avC5#11	    1.1551	$X=3.0125 $Y=2.41
Rj19	I2/avC5#16	I2/avC5#14	    0.6719	$X=3.695 $Y=1.21
Rj20	I2/avC5#14	I2/avC5#11	    1.1551	$X=3.0125 $Y=1.21
Rj21	I1/avC3#5	I1/avC3#4	    1.3004	$X=3.4775 $Y=2.11
Rj22	I2/avC3#5	I2/avC3#4	    1.3004	$X=3.4775 $Y=1.51
Rj23	avC9#11	avC9#10	    0.7438	$X=4.1525 $Y=2.26
Rj24	avC12#20	avC12#19	    0.7438	$X=4.1525 $Y=1.36
Rj25	CLK#18	CLK#15	    0.8424	$X=4.0475 $Y=2.56
Rj26	avC13#12	avC13#11	    0.8424	$X=4.0475 $Y=1.06
Rj27	VDD#15	VDD#51	    0.1667	$X=4.825 $Y=1.81
Rj28	avC10#10	avC10#8	    2.7583	$X=3.845 $Y=2.86
Rj29	avC10#11	avC10#9	    2.7590	$X=3.845 $Y=0.76
Rj30	avC10#9	avC10#6	    0.5559	$X=1.9225 $Y=0.76
Rj31	I1/avC9#14	I1/avC9#11	    1.4542	$X=5.5225 $Y=2.41
Rj32	I2/avC9#14	I2/avC9#11	    1.4542	$X=5.5225 $Y=1.21
Rj33	I1/avC6#12	I1/avC6#7	    0.5328	$X=5.8725 $Y=2.11
Rj34	I2/avC6#12	I2/avC6#7	    0.5328	$X=5.8725 $Y=1.51
Rj35	I1/avC6#13	I1/avC6#9	    0.7161	$X=6.67 $Y=2.66
Rj36	I2/avC6#13	I2/avC6#9	    0.7161	$X=6.67 $Y=0.96
Rj37	avC11#24	avC11#4	    3.1119	$X=4.63 $Y=0.61
Rj38	avC12#25	avC12#9	    3.1187	$X=4.6475 $Y=3.01
Rj39	avC13#16	avC13#14	    1.0000	$X=7.535 $Y=2.71
Rj40	avC14#14	avC14#9	    1.0000	$X=7.535 $Y=0.91
Rj42	avC12#27	avC12#28	    0.5000	$X=7.12 $Y=2.41
Rj43	avC12#22	avC12#27	    0.5000	$X=7.12 $Y=2.41
Rj44	avC7#19	avC7#8	    1.0000	$X=7.885 $Y=2.655
Rj45	avC8#19	avC8#11	    1.0000	$X=8.35 $Y=2.655
Rj46	VSS#59	VSS#34	8.333e-02	$X=9.385 $Y=3.27
Rj47	VSS#4	VSS#60	    0.1667	$X=9.385 $Y=0.35
Rj48	avC11#23	avC11#22	    0.6330	$X=8.985 $Y=1.36
Rj49	avC11#22	avC11#25	    0.2379	$X=8.16 $Y=1.36
Rj50	avC11#25	avC11#26	    0.4407	$X=7.76 $Y=1.36
Rj51	avC11#25	avC11#21	3.953e-02	$X=7.905 $Y=1.42
Rj52	avC11#26	avC11#27	    0.5094	$X=7.1075 $Y=1.1975
Rj53	avC11#19	avC11#26	    0.5000	$X=7.12 $Y=1.21
Rj54	avC14#13	avC14#15	    0.7588	$X=9.55 $Y=1.655
Rj55	avC14#15	avC14#16	    0.6041	$X=8.725 $Y=1.655
Rj56	avC14#16	avC14#17	    0.7867	$X=7.8075 $Y=1.655
Rj57	avC14#15	avC14#12	4.114e-02	$X=9.32 $Y=1.595
Rj58	avC14#16	avC14#11	    0.5133	$X=8.1045 $Y=1.615
Rj59	avC7#17	avC7#20	    0.7648	$X=9.415 $Y=1.05
Rj60	avC7#20	avC7#21	    0.2091	$X=8.9375 $Y=1.05
Rj61	avC7#21	avC7#22	    0.9571	$X=8.3175 $Y=1.05
Rj62	avC7#15	avC7#20	    0.5000	$X=9.15 $Y=1.02
Rj63	avC7#10	avC7#21	    0.5000	$X=8.75 $Y=1.05
Rj64	avC8#17	avC8#20	    0.7038	$X=8.7675 $Y=0.87
Rj65	avC8#20	avC8#21	    0.1020	$X=8.4425 $Y=0.87
Rj66	avC8#21	avC8#9	    0.6504	$X=8.2025 $Y=0.87
Rj67	avC8#12	avC8#20	    0.5000	$X=8.56 $Y=0.9
Rj68	CLK_out	CLK_out#4	    0.1574	$X=8.712 $Y=2.95
Rj69	CLK_out_b	CLK_out_b#4	    0.3858	$X=8.4795 $Y=2.13
Rk1	CLK#8	CLK#9	4.897e-03	$X=1.665 $Y=2.36
Rk2	CLK#10	CLK#11	4.897e-03	$X=1.7 $Y=2.38
Rk3	CLK#9	CLK#10	1.295e-02	$X=1.6825 $Y=2.37
Rk4	CLK#2	CLK#11	   45.0000	$X=1.7 $Y=2.38
Rk5	RST#8	RST#9	4.897e-03	$X=1.665 $Y=0.91
Rk6	RST#10	RST#11	4.897e-03	$X=1.7 $Y=0.93
Rk7	RST#9	RST#10	1.295e-02	$X=1.6825 $Y=0.92
Rk8	RST#2	RST#11	   45.0000	$X=1.7 $Y=0.93
Rk9	avC9#5	avC9#6	   75.3024	$X=1.83 $Y=2.785
Rk10	avC9#6	avC9#7	   31.3209	$X=1.83 $Y=2.375
Rk11	avC10#5	avC10#6	   31.5270	$X=1.83 $Y=1.095
Rk12	avC10#6	avC10#7	   75.0938	$X=1.83 $Y=0.685
Rk13	avC12#5	avC12#6	   75.3668	$X=2.09 $Y=2.65
Rk14	avC12#6	avC12#7	   62.2432	$X=2.09 $Y=2.24
Rk15	avC11	avC11#2	   62.2432	$X=2.09 $Y=1.38
Rk16	avC11#2	avC11#3	   75.3626	$X=2.09 $Y=0.97
Rk17	avC9	avC9#8	    0.5098	$X=2.245 $Y=2.5675
Rk18	avC12#8	avC12	    0.5098	$X=2.245 $Y=1.0525
Rk19	CLK#12	CLK#13	3.537e-03	$X=2.265 $Y=2.26
Rk20	CLK#4	CLK#14	3.537e-03	$X=2.245 $Y=2.28
Rk21	CLK#12	CLK#14	9.794e-03	$X=2.255 $Y=2.27
Rk22	avC13	avC13#5	3.537e-03	$X=2.245 $Y=1.34
Rk23	avC13#6	avC13#7	3.537e-03	$X=2.265 $Y=1.36
Rk24	avC13#5	avC13#6	9.794e-03	$X=2.255 $Y=1.35
Rk25	I1/avC5#8	I1/avC5#10	   75.4143	$X=2.555 $Y=2.669
Rk26	I1/avC5#10	I1/avC5#11	5.373e-02	$X=2.5175 $Y=2.41
Rk27	I1/avC5#11	I1/avC5#12	   62.2927	$X=2.435 $Y=2.255
Rk28	I1/avC5#11	I1/avC5#13	   75.4616	$X=2.435 $Y=2.635
Rk29	I1/avC5#9	I1/avC5#10	   62.0000	$X=2.555 $Y=2.44
Rk30	I2/avC5#8	I2/avC5#10	   75.4173	$X=2.555 $Y=0.97
Rk31	I2/avC5#10	I2/avC5#11	5.373e-02	$X=2.525 $Y=1.21
Rk32	I2/avC5#11	I2/avC5#12	   75.4748	$X=2.435 $Y=0.985
Rk33	I2/avC5#11	I2/avC5#13	   62.3074	$X=2.435 $Y=1.365
Rk34	I2/avC5#9	I2/avC5#10	   62.0000	$X=2.555 $Y=1.18
Rk35	I1/avC3	I1/avC3#4	   45.9261	$X=2.73 $Y=2.39
Rk36	I2/avC3	I2/avC3#4	   45.9261	$X=2.73 $Y=1.23
Rk37	CLK#15	CLK#16	    1.2206	$X=3.26 $Y=2.41
Rk38	avC13#10	avC13#11	    1.2206	$X=3.26 $Y=1.21
Rk39	avC9#10	avC9#9	    1.2679	$X=3.25 $Y=2.13
Rk40	avC12#19	avC12#18	    1.2679	$X=3.25 $Y=1.49
Rk41	I1/avC5#14	I1/avC5#15	   75.8361	$X=3.52 $Y=2.635
Rk42	I2/avC5#14	I2/avC5#15	   75.8361	$X=3.52 $Y=0.985
Rk43	RST#16	RST#4	4.379e-03	$X=3.72 $Y=2.66
Rk44	RST#14	RST#17	4.379e-03	$X=3.695 $Y=2.71
Rk45	RST#16	RST#17	2.449e-02	$X=3.7075 $Y=2.685
Rk46	RST#15	RST#18	4.379e-03	$X=3.695 $Y=0.91
Rk47	RST#19	RST#6	4.379e-03	$X=3.72 $Y=0.96
Rk48	RST#18	RST#19	2.449e-02	$X=3.7075 $Y=0.935
Rk49	I1/avC5#4	I1/avC5#16	    0.2418	$X=3.87 $Y=2.525
Rk50	I2/avC5#4	I2/avC5#16	    0.2418	$X=3.87 $Y=1.095
Rk51	I1/avC3#6	I1/avC3#7	   75.1689	$X=4.68 $Y=2.77
Rk52	I1/avC3#7	I1/avC3#8	    0.3029	$X=4.4475 $Y=2.66
Rk53	I1/avC3#8	I1/avC3#10	    0.3335	$X=4.215 $Y=2.46
Rk54	I1/avC3#7	I1/avC3#11	   62.4662	$X=4.68 $Y=2.37
Rk55	I1/avC3#8	I1/avC3#12	   37.7292	$X=4.215 $Y=2.77
Rk56	I1/avC3#10	I1/avC3#5	    0.1170	$X=4.215 $Y=2.19
Rk57	I1/avC3#9	I1/avC3#10	   15.5000	$X=4.215 $Y=2.26
Rk58	I2/avC3#6	I2/avC3#7	   62.4662	$X=4.68 $Y=1.25
Rk59	I2/avC3#7	I2/avC3#8	    0.3029	$X=4.4475 $Y=0.96
Rk60	I2/avC3#8	I2/avC3#9	   37.7292	$X=4.215 $Y=0.85
Rk61	I2/avC3#7	I2/avC3#10	   75.1689	$X=4.68 $Y=0.85
Rk62	I2/avC3#8	I2/avC3#12	    0.3335	$X=4.215 $Y=1.16
Rk63	I2/avC3#12	I2/avC3#5	    0.1210	$X=4.215 $Y=1.43
Rk64	I2/avC3#11	I2/avC3#12	   15.5000	$X=4.215 $Y=1.36
Rk65	CLK#6	CLK#18	    0.5098	$X=4.835 $Y=2.5675
Rk66	avC9#3	avC9#11	    0.5098	$X=4.835 $Y=2.2675
Rk67	avC12#20	avC12#3	    0.5098	$X=4.835 $Y=1.3525
Rk68	avC13#12	avC13#3	    0.5098	$X=4.835 $Y=1.0525
Rk69	I1/avC9#8	I1/avC9#10	   75.4143	$X=5.145 $Y=2.669
Rk70	I1/avC9#10	I1/avC9#11	5.373e-02	$X=5.1075 $Y=2.41
Rk71	I1/avC9#11	I1/avC9#12	   62.2891	$X=5.025 $Y=2.255
Rk72	I1/avC9#11	I1/avC9#13	   75.4616	$X=5.025 $Y=2.635
Rk73	I1/avC9#9	I1/avC9#10	   62.0000	$X=5.145 $Y=2.44
Rk74	I2/avC9#8	I2/avC9#10	   75.4173	$X=5.145 $Y=0.97
Rk75	I2/avC9#10	I2/avC9#11	5.373e-02	$X=5.115 $Y=1.21
Rk76	I2/avC9#11	I2/avC9#12	   75.4748	$X=5.025 $Y=0.985
Rk77	I2/avC9#11	I2/avC9#13	   62.3035	$X=5.025 $Y=1.365
Rk78	I2/avC9#9	I2/avC9#10	   62.0000	$X=5.145 $Y=1.18
Rk79	I1/avC6	I1/avC6#7	   45.9261	$X=5.32 $Y=2.39
Rk80	I2/avC6	I2/avC6#7	   45.9261	$X=5.32 $Y=1.23
Rk81	avC10#2	avC10#10	4.152e-02	$X=5.8525 $Y=2.652
Rk82	avC10#4	avC10#11	4.152e-02	$X=5.852 $Y=0.966
Rk83	I1/avC9#4	I1/avC9#14	    0.2215	$X=6.08 $Y=2.55
Rk84	I1/avC9#14	I1/avC9#15	   62.0171	$X=5.97 $Y=2.4225
Rk85	I2/avC9#4	I2/avC9#14	    0.2215	$X=6.08 $Y=1.07
Rk86	I2/avC9#14	I2/avC9#15	   62.0171	$X=5.97 $Y=1.1975
Rk87	I1/avC6#8	I1/avC6#9	   37.7089	$X=6.415 $Y=2.775
Rk88	I1/avC6#9	I1/avC6#11	    0.3132	$X=6.415 $Y=2.455
Rk89	I1/avC6#11	I1/avC6#12	    0.6170	$X=6.415 $Y=2.19
Rk90	I1/avC6#10	I1/avC6#11	   15.5000	$X=6.415 $Y=2.26
Rk91	I2/avC6#8	I2/avC6#9	   37.7089	$X=6.415 $Y=0.845
Rk92	I2/avC6#9	I2/avC6#11	    0.3132	$X=6.415 $Y=1.165
Rk93	I2/avC6#11	I2/avC6#12	    0.6210	$X=6.415 $Y=1.43
Rk94	I2/avC6#10	I2/avC6#11	   15.5000	$X=6.415 $Y=1.36
Rk95	I1/avC6#5	I1/avC6#13	   45.5280	$X=6.915 $Y=2.66
Rk96	I2/avC6#5	I2/avC6#13	   45.5280	$X=6.915 $Y=0.96
Rk97	avC12#16	avC12#21	    0.1250	$X=7.2075 $Y=2.66
Rk98	avC12#21	avC12#22	    0.1909	$X=7.085 $Y=2.525
Rk99	avC12#22	avC12#23	   15.6046	$X=7.085 $Y=2.33
Rk100	avC12#21	avC12#24	   37.7254	$X=7.085 $Y=2.785
Rk101	avC11#8	avC11#17	    0.1250	$X=7.2075 $Y=0.96
Rk102	avC11#17	avC11#18	   37.7254	$X=7.085 $Y=0.835
Rk103	avC11#17	avC11#19	    0.1909	$X=7.085 $Y=1.095
Rk104	avC11#19	avC11#20	   15.6046	$X=7.085 $Y=1.29
Rk105	avC13#13	avC13#14	   37.6667	$X=7.55 $Y=2.8
Rk106	avC13#14	avC13#15	   15.8344	$X=7.55 $Y=2.57
Rk107	avC14#8	avC14#9	   15.8344	$X=7.55 $Y=1.05
Rk108	avC14#9	avC14#10	   37.6667	$X=7.55 $Y=0.82
Rk109	avC7#3	avC7#8	1.768e-03	$X=7.885 $Y=2.655
Rk110	avC11#11	avC11#21	    0.5058	$X=7.91 $Y=1.505
Rk111	CLK_out_b#1	CLK_out_b#3	   38.0286	$X=8.055 $Y=2.57
Rk112	CLK_out_b#3	CLK_out_b#4	    0.5937	$X=8.055 $Y=2.2125
Rk113	CLK_out_b#2	CLK_out_b#3	   15.5000	$X=8.055 $Y=2.26
Rk114	avC8#8	avC8#9	   31.3513	$X=8.055 $Y=1.0525
Rk115	avC8#9	avC8#10	   75.1036	$X=8.055 $Y=0.8
Rk116	avC14#11	avC14	4.897e-03	$X=8.105 $Y=1.5825
Rk117	avC11#22	avC11#12	    1.4301	$X=8.38 $Y=0.96
Rk118	avC8#3	avC8#11	1.768e-03	$X=8.35 $Y=2.655
Rk119	CLK_out#1	CLK_out#3	   16.0235	$X=8.52 $Y=2.6775
Rk120	CLK_out#3	CLK_out#4	    0.5061	$X=8.5275 $Y=2.9475
Rk121	CLK_out#2	CLK_out#3	   37.5000	$X=8.52 $Y=2.94
Rk122	avC8#12	avC8#13	4.004e-03	$X=8.56 $Y=0.9
Rk123	avC8#14	avC8#15	4.004e-03	$X=8.595 $Y=0.92
Rk124	avC8#13	avC8#14	1.714e-02	$X=8.5775 $Y=0.91
Rk125	avC8#6	avC8#15	   45.0000	$X=8.595 $Y=0.92
Rk126	avC7#9	avC7#10	   15.7259	$X=8.725 $Y=1.12
Rk127	avC7#10	avC7#11	   37.7821	$X=8.725 $Y=0.89
Rk128	avC8#16	avC8#17	   15.8748	$X=8.985 $Y=1.03
Rk129	avC8#17	avC8#18	   37.6332	$X=8.985 $Y=0.8
Rk130	avC7#12	avC7#13	4.004e-03	$X=9.115 $Y=1
Rk131	avC7#14	avC7#15	4.004e-03	$X=9.15 $Y=1.02
Rk132	avC7#13	avC7#14	1.714e-02	$X=9.1325 $Y=1.01
Rk133	avC7#6	avC7#12	   45.0000	$X=9.115 $Y=1
Rk134	avC14#5	avC14#12	    1.5794	$X=9.33 $Y=1.035
Rk135	avC11#23	avC11#16	    0.5019	$X=9.605 $Y=1.505
Rk136	avC7#16	avC7#17	   31.1948	$X=9.655 $Y=1.1425
Rk137	avC7#17	avC7#18	   75.2600	$X=9.655 $Y=0.89
Rk138	avC14#7	avC14#13	5.841e-03	$X=9.8 $Y=1.5825
Rk139	VSS#1	VSS#3	   31.4203	$X=9.86 $Y=1.0125
Rk140	VSS#3	VSS#4	    0.3409	$X=9.865 $Y=0.58
Rk141	VSS#4	VSS#5	    0.2153	$X=8.855 $Y=0.35
Rk142	VSS#5	VSS#7	    0.1318	$X=8.305 $Y=0.35
Rk143	VSS#7	VSS#8	3.466e-02	$X=7.88 $Y=0.35
Rk144	VSS#8	VSS#9	    0.1254	$X=7.5975 $Y=0.35
Rk145	VSS#9	VSS#10	    0.1154	$X=7.1125 $Y=0.35
Rk146	VSS#10	VSS#11	6.434e-02	$X=6.75 $Y=0.35
Rk147	VSS#11	VSS#12	    0.1017	$X=6.415 $Y=0.35
Rk148	VSS#12	VSS#13	8.303e-02	$X=6.0425 $Y=0.35
Rk149	VSS#13	VSS	3.466e-02	$X=5.7905 $Y=0.35
Rk150	VSS	VSS#14	    0.3274	$X=5.092 $Y=0.35
Rk151	VSS#14	VSS#15	    0.1017	$X=4.215 $Y=0.35
Rk152	VSS#15	VSS#16	6.434e-02	$X=3.88 $Y=0.35
Rk153	VSS#16	VSS#17	    0.1154	$X=3.5175 $Y=0.35
Rk154	VSS#17	VSS#18	    0.2627	$X=2.8675 $Y=0.35
Rk155	VSS#18	VSS#19	   75.2833	$X=1.625 $Y=0.535
Rk156	VSS#4	VSS#20	   37.6963	$X=9.19 $Y=0.535
Rk157	VSS#5	VSS#21	   37.7006	$X=8.52 $Y=0.535
Rk158	VSS#8	VSS#23	    0.2245	$X=7.85 $Y=0.595
Rk159	VSS#23	VSS#24	   31.4212	$X=7.85 $Y=0.9825
Rk160	VSS#9	VSS#25	   37.6874	$X=7.345 $Y=0.535
Rk161	VSS#10	VSS#26	   37.6874	$X=6.88 $Y=0.535
Rk162	VSS#11	VSS#27	   37.6874	$X=6.62 $Y=0.535
Rk163	VSS#12	VSS#28	   37.6874	$X=6.21 $Y=0.535
Rk164	VSS#13	VSS#29	   75.2199	$X=5.875 $Y=0.595
Rk165	VSS#14	VSS#30	   37.6874	$X=4.42 $Y=0.535
Rk166	VSS#15	VSS#31	   37.6874	$X=4.01 $Y=0.535
Rk167	VSS#16	VSS#32	   75.2245	$X=3.75 $Y=0.595
Rk168	VSS#17	VSS#33	   75.2221	$X=3.285 $Y=0.595
Rk169	VSS#2	VSS#3	   75.0000	$X=9.86 $Y=0.74
Rk170	VSS#6	VSS#7	   20.6667	$X=7.99 $Y=0.35
Rk171	VSS#6	VSS#18	   20.6667	$X=2.23 $Y=0.35
Rk172	VSS#22	VSS#23	   75.0000	$X=7.85 $Y=0.74
Rk174	VDD#2	VDD#3	6.434e-02	$X=9.32 $Y=1.81
Rk175	VDD#3	VDD#4	    0.1665	$X=8.855 $Y=1.81
Rk176	VDD#4	VDD#5	5.004e-02	$X=8.4175 $Y=1.81
Rk177	VDD#5	VDD#6	1.391e-02	$X=8.29 $Y=1.81
Rk178	VDD#6	VDD#8	6.705e-02	$X=8.175 $Y=1.81
Rk179	VDD#8	VDD#9	3.466e-02	$X=7.88 $Y=1.81
Rk180	VDD#9	VDD#10	    0.1252	$X=7.5975 $Y=1.81
Rk181	VDD#10	VDD#11	    0.1150	$X=7.1125 $Y=1.81
Rk182	VDD#11	VDD#12	6.390e-02	$X=6.75 $Y=1.81
Rk183	VDD#12	VDD#13	    0.1013	$X=6.415 $Y=1.81
Rk184	VDD#13	VDD	    0.1179	$X=5.9775 $Y=1.81
Rk185	VDD	VDD#14	6.185e-02	$X=5.615 $Y=1.81
Rk186	VDD#14	VDD#15	    0.1640	$X=5.23 $Y=1.81
Rk187	VDD#15	VDD#16	    0.1005	$X=4.5475 $Y=1.81
Rk188	VDD#16	VDD#17	    0.1013	$X=4.215 $Y=1.81
Rk189	VDD#17	VDD#18	    0.2769	$X=3.4525 $Y=1.81
Rk190	VDD#18	VDD#19	    0.1653	$X=2.6725 $Y=1.81
Rk191	VDD#19	VDD#20	    0.1434	$X=1.8175 $Y=1.81
Rk192	VDD#20	VDD#21	   31.2252	$X=1.625 $Y=1.625
Rk193	VDD#2	VDD#23	    0.4260	$X=9.45 $Y=1.5275
Rk194	VDD#23	VDD#24	   75.5415	$X=9.45 $Y=0.9825
Rk195	VDD#3	VDD#25	   15.8195	$X=9.19 $Y=1.625
Rk196	VDD#4	VDD#26	   15.8000	$X=8.52 $Y=1.625
Rk197	VDD#5	VDD#27	   15.7852	$X=8.315 $Y=2.085
Rk198	VDD#6	VDD#29	    0.3843	$X=8.26 $Y=1.4975
Rk199	VDD#29	VDD#30	   75.5415	$X=8.26 $Y=1.0125
Rk200	VDD#9	VDD#31	   15.7802	$X=7.85 $Y=1.995
Rk201	VDD#10	VDD#32	   15.8738	$X=7.345 $Y=1.625
Rk202	VDD#10	VDD#33	   15.8738	$X=7.345 $Y=1.995
Rk203	VDD#11	VDD#34	   15.8738	$X=6.88 $Y=1.625
Rk204	VDD#11	VDD#35	   15.8738	$X=6.88 $Y=1.995
Rk205	VDD#12	VDD#36	   15.8738	$X=6.62 $Y=1.625
Rk206	VDD#12	VDD#37	   15.8738	$X=6.62 $Y=1.995
Rk207	VDD#13	VDD#38	   15.8738	$X=6.21 $Y=1.625
Rk208	VDD#13	VDD#39	   15.8738	$X=6.21 $Y=1.995
Rk209	VDD	VDD#40	   62.3879	$X=5.745 $Y=1.445
Rk210	VDD	VDD#41	   62.3879	$X=5.745 $Y=2.175
Rk211	VDD#14	VDD#42	   62.5168	$X=5.485 $Y=1.445
Rk212	VDD#14	VDD#43	   62.5168	$X=5.485 $Y=2.175
Rk213	VDD#16	VDD#44	   15.8738	$X=4.42 $Y=1.625
Rk214	VDD#16	VDD#45	   15.8738	$X=4.42 $Y=1.995
Rk215	VDD#17	VDD#46	   15.8738	$X=4.01 $Y=1.625
Rk216	VDD#17	VDD#47	   15.8738	$X=4.01 $Y=1.995
Rk217	VDD#18	VDD#48	   62.5510	$X=2.895 $Y=1.445
Rk218	VDD#18	VDD#49	   62.5510	$X=2.895 $Y=2.175
Rk219	VDD#20	VDD#50	   31.2546	$X=1.625 $Y=1.995
Rk220	VDD#7	VDD#8	   25.0000	$X=7.99 $Y=1.81
Rk221	VDD#7	VDD#19	   25.0000	$X=2.23 $Y=1.81
Rk222	VDD#22	VDD#23	   31.0000	$X=9.45 $Y=1.285
Rk223	VDD#28	VDD#29	   31.0000	$X=8.26 $Y=1.285
Rk224	VSS#34	VSS#35	    0.3497	$X=8.775 $Y=3.27
Rk225	VSS#35	VSS#36	    0.1154	$X=8.0825 $Y=3.27
Rk226	VSS#36	VSS#37	    0.1254	$X=7.5975 $Y=3.27
Rk227	VSS#37	VSS#38	    0.1154	$X=7.1125 $Y=3.27
Rk228	VSS#38	VSS#39	6.434e-02	$X=6.75 $Y=3.27
Rk229	VSS#39	VSS#40	    0.1017	$X=6.415 $Y=3.27
Rk230	VSS#40	VSS#41	8.303e-02	$X=6.0425 $Y=3.27
Rk231	VSS#41	VSS	3.466e-02	$X=5.7905 $Y=3.27
Rk232	VSS	VSS#42	    0.3274	$X=5.092 $Y=3.27
Rk233	VSS#42	VSS#43	    0.1017	$X=4.215 $Y=3.27
Rk234	VSS#43	VSS#44	6.434e-02	$X=3.88 $Y=3.27
Rk235	VSS#44	VSS#45	    0.1154	$X=3.5175 $Y=3.27
Rk236	VSS#45	VSS#46	    0.2627	$X=2.8675 $Y=3.27
Rk237	VSS#46	VSS#47	   75.2833	$X=1.625 $Y=3.085
Rk238	VSS#35	VSS#48	   37.6874	$X=8.315 $Y=3.085
Rk239	VSS#36	VSS#49	   37.6874	$X=7.85 $Y=3.085
Rk240	VSS#37	VSS#50	   37.6874	$X=7.345 $Y=3.085
Rk241	VSS#38	VSS#51	   37.6874	$X=6.88 $Y=3.085
Rk242	VSS#39	VSS#52	   37.6874	$X=6.62 $Y=3.085
Rk243	VSS#40	VSS#53	   37.6874	$X=6.21 $Y=3.085
Rk244	VSS#41	VSS#54	   75.2199	$X=5.875 $Y=3.025
Rk245	VSS#42	VSS#55	   37.6874	$X=4.42 $Y=3.085
Rk246	VSS#43	VSS#56	   37.6874	$X=4.01 $Y=3.085
Rk247	VSS#44	VSS#57	   75.2245	$X=3.75 $Y=3.025
Rk248	VSS#45	VSS#58	   75.2221	$X=3.285 $Y=3.025
Rk249	VSS#6	VSS#46	   20.6667	$X=2.23 $Y=3.27
Rl1	CLK#1	CLK#2	  202.6149	$X=1.7275 $Y=2.6855
Rl2	CLK#2	CLK#3	   33.3841	$X=1.7275 $Y=2.29
Rl3	RST#1	RST#2	  152.6149	$X=1.7275 $Y=1.1705
Rl4	RST#2	RST#3	   83.3841	$X=1.7275 $Y=0.775
Rl5	avC9	avC9#2	  126.3596	$X=2.1925 $Y=2.73
Rl6	CLK#4	CLK#5	   87.8980	$X=2.1925 $Y=2.18
Rl7	avC13	avC13#2	   87.8980	$X=2.1925 $Y=1.44
Rl8	avC12	avC12#2	  126.3596	$X=2.1925 $Y=0.89
Rl9	I1/avC3	I1/avC3#2	   11.2742	$X=2.725 $Y=2.5565
Rl10	I1/avC3	I1/avC3#3	    9.7184	$X=2.92 $Y=2.7635
Rl11	I2/avC3	I2/avC3#2	    9.7184	$X=2.92 $Y=0.8565
Rl12	I2/avC3	I2/avC3#3	   11.2742	$X=2.725 $Y=1.0635
Rl13	RST#4	RST#5	   98.1035	$X=3.6475 $Y=2.77
Rl14	RST#6	RST#7	   98.1035	$X=3.6475 $Y=0.85
Rl15	I1/avC5	I1/avC5#2	   56.5719	$X=4.3175 $Y=2.7705
Rl16	I1/avC5#2	I1/avC5#3	   23.6889	$X=4.215 $Y=2.66
Rl17	I1/avC5#3	I1/avC5#4	   50.6296	$X=4.089 $Y=2.66
Rl18	I1/avC5#2	I1/avC5#5	   56.5719	$X=4.3175 $Y=2.55
Rl19	I1/avC5#3	I1/avC5#6	   55.6157	$X=4.1125 $Y=2.55
Rl20	I1/avC5#3	I1/avC5#7	   55.6157	$X=4.1125 $Y=2.77
Rl21	I2/avC5	I2/avC5#2	   56.5719	$X=4.3175 $Y=1.0705
Rl22	I2/avC5#2	I2/avC5#3	   23.6889	$X=4.215 $Y=0.96
Rl23	I2/avC5#3	I2/avC5#4	   50.6296	$X=4.089 $Y=0.96
Rl24	I2/avC5#2	I2/avC5#5	   56.5719	$X=4.3175 $Y=0.85
Rl25	I2/avC5#3	I2/avC5#6	   55.6157	$X=4.1125 $Y=0.85
Rl26	I2/avC5#3	I2/avC5#7	   55.6157	$X=4.1125 $Y=1.07
Rl27	CLK#6	CLK#7	  126.3596	$X=4.7825 $Y=2.73
Rl28	avC9#3	avC9#4	   87.8980	$X=4.7825 $Y=2.18
Rl29	avC12#3	avC12#4	   87.8980	$X=4.7825 $Y=1.44
Rl30	avC13#3	avC13#4	  126.3596	$X=4.7825 $Y=0.89
Rl31	I1/avC6	I1/avC6#2	   11.2742	$X=5.315 $Y=2.5565
Rl32	I1/avC6	I1/avC6#3	    9.7184	$X=5.51 $Y=2.7635
Rl33	I2/avC6	I2/avC6#2	    9.7184	$X=5.51 $Y=0.8565
Rl34	I2/avC6	I2/avC6#3	   11.2742	$X=5.315 $Y=1.0635
Rl35	avC10	avC10#2	   74.5009	$X=5.8475 $Y=2.5245
Rl36	avC10#3	avC10#4	   74.5009	$X=5.8475 $Y=1.0955
Rl37	I1/avC9	I1/avC9#2	   56.5719	$X=6.5175 $Y=2.7705
Rl38	I1/avC9#2	I1/avC9#3	   23.6889	$X=6.415 $Y=2.66
Rl39	I1/avC9#3	I1/avC9#4	   50.6296	$X=6.289 $Y=2.66
Rl40	I1/avC9#2	I1/avC9#5	   56.5719	$X=6.5175 $Y=2.55
Rl41	I1/avC9#3	I1/avC9#6	   55.6157	$X=6.3125 $Y=2.55
Rl42	I1/avC9#3	I1/avC9#7	   55.6157	$X=6.3125 $Y=2.77
Rl43	I2/avC9	I2/avC9#2	   56.5719	$X=6.5175 $Y=1.0705
Rl44	I2/avC9#2	I2/avC9#3	   23.6889	$X=6.415 $Y=0.96
Rl45	I2/avC9#3	I2/avC9#4	   50.6296	$X=6.289 $Y=0.96
Rl46	I2/avC9#2	I2/avC9#5	   56.5719	$X=6.5175 $Y=0.85
Rl47	I2/avC9#3	I2/avC9#6	   55.6157	$X=6.3125 $Y=0.85
Rl48	I2/avC9#3	I2/avC9#7	   55.6157	$X=6.3125 $Y=1.07
Rl49	I1/avC6#4	I1/avC6#5	   49.0903	$X=6.9825 $Y=2.7645
Rl50	I1/avC6#5	I1/avC6#6	   49.0903	$X=6.9825 $Y=2.55
Rl51	I2/avC6#4	I2/avC6#5	   49.0903	$X=6.9825 $Y=1.0645
Rl52	I2/avC6#5	I2/avC6#6	   49.0903	$X=6.9825 $Y=0.85
Rl53	avC12#14	avC12#15	   56.5719	$X=7.4475 $Y=2.7705
Rl54	avC12#15	avC12#16	   50.0130	$X=7.4225 $Y=2.66
Rl55	avC12#15	avC12#17	   56.5719	$X=7.4475 $Y=2.55
Rl56	avC11#6	avC11#7	   56.5719	$X=7.4475 $Y=1.0705
Rl57	avC11#7	avC11#8	   50.0130	$X=7.4225 $Y=0.96
Rl58	avC11#7	avC11#9	   56.5719	$X=7.4475 $Y=0.85
Rl59	avC7	avC7#2	   56.5719	$X=7.9525 $Y=2.7705
Rl60	avC7#2	avC7#3	   48.1183	$X=7.929 $Y=2.66
Rl61	avC7#2	avC7#4	   56.5719	$X=7.9525 $Y=2.55
Rl62	avC11#10	avC11#11	   69.2328	$X=7.9525 $Y=1.4295
Rl63	avC14	avC14#2	  101.9251	$X=8.1575 $Y=1.4725
Rl64	avC14#2	avC14#3	  201.4887	$X=8.0555 $Y=0.9825
Rl65	avC11#12	avC11#13	   73.0790	$X=8.1575 $Y=0.65
Rl66	avC8	avC8#2	   56.5719	$X=8.4175 $Y=2.7705
Rl67	avC8#2	avC8#3	   48.1183	$X=8.394 $Y=2.66
Rl68	avC8#2	avC8#4	   56.5719	$X=8.4175 $Y=2.55
Rl69	avC8#5	avC8#6	   64.1533	$X=8.6225 $Y=1.0455
Rl70	avC8#6	avC8#7	   33.3841	$X=8.6225 $Y=0.83
Rl71	avC7#5	avC7#6	   33.3841	$X=9.0875 $Y=1.0855
Rl72	avC7#6	avC7#7	   64.1533	$X=9.0875 $Y=0.87
Rl73	avC14#4	avC14#5	   73.0790	$X=9.5525 $Y=0.6505
Rl74	avC11#14	avC11#15	  201.4887	$X=9.6555 $Y=0.9825
Rl75	avC11#15	avC11#16	   69.2328	$X=9.5525 $Y=1.4295
Rl76	avC14#6	avC14#7	  101.9251	$X=9.7575 $Y=1.472
*
*       CAPACITOR CARDS
*
*
C1	VDD	VSS	1.4075e-16	$X=6.026 $Y=1.8095
C2	CLK	VSS	1.01095e-16	$X=2.7155 $Y=2.2465
C3	RST	VSS	2.47086e-16	$X=2.9245 $Y=0.9575
C4	CLK_out	VSS	1.33374e-16	$X=9.14 $Y=2.867
C5	CLK_out_b	VSS	1.38221e-16	$X=9.001 $Y=2.102
C6	avC7	VSS	2.50297e-17	$X=7.9355 $Y=2.949
C7	avC8	VSS	2.55205e-17	$X=8.394 $Y=2.949
C8	avC11	VSS	5.69161e-17	$X=2.2025 $Y=1.521
C9	avC14	VSS	3.2981e-17	$X=8.139 $Y=1.559
C10	avC12	VSS	2.98248e-17	$X=2.2595 $Y=1.007
C11	avC13	VSS	2.85496e-17	$X=2.2515 $Y=1.3645
C12	avC10	VSS	1.652e-17	$X=5.8545 $Y=2.396
C13	avC9	VSS	2.89417e-17	$X=2.2595 $Y=2.6115
C14	I1/avC9	VSS	2.07485e-17	$X=6.52 $Y=2.949
C15	I1/avC6	VSS	1.13065e-16	$X=5.5305 $Y=2.6015
C16	I1/avC5	VSS	2.16803e-17	$X=4.35 $Y=2.949
C17	I1/avC3	VSS	1.17108e-16	$X=3.0835 $Y=2.6015
C18	I2/avC9	VSS	2.44123e-17	$X=6.522 $Y=1.394
C19	I2/avC6	VSS	1.08532e-16	$X=5.5305 $Y=1.017
C20	I2/avC5	VSS	2.65558e-17	$X=4.3705 $Y=1.394
C21	I2/avC3	VSS	1.10928e-16	$X=3.0835 $Y=1.017
C22	avC14#6	VSS	3.67945e-17	$X=9.714 $Y=1.275
C23	avC11#15	VSS	4.13213e-17	$X=9.498 $Y=1.2055
C24	avC7#5	VSS	3.0922e-17	$X=9.0365 $Y=1.401
C25	avC8#5	VSS	3.2605e-17	$X=8.579 $Y=1.382
C26	avC8#4	VSS	3.08534e-17	$X=8.38 $Y=2.225
C27	avC14#2	VSS	4.81248e-17	$X=8.1275 $Y=1.2275
C28	avC7#4	VSS	3.07633e-17	$X=7.9255 $Y=2.225
C29	avC11#10	VSS	2.87619e-17	$X=7.9365 $Y=1.2535
C30	avC12#17	VSS	2.67685e-17	$X=7.4315 $Y=2.225
C31	avC11#6	VSS	2.5151e-17	$X=7.4315 $Y=1.394
C32	I1/avC6#6	VSS	2.96175e-17	$X=6.9765 $Y=2.2275
C33	I2/avC6#4	VSS	3.04939e-17	$X=6.9765 $Y=1.391
C34	I1/avC9#5	VSS	2.19368e-17	$X=6.522 $Y=2.225
C35	I1/avC9#6	VSS	2.61816e-17	$X=6.3215 $Y=2.225
C36	I2/avC9#7	VSS	2.53993e-17	$X=6.3215 $Y=1.3935
C37	avC10#3	VSS	1.64631e-17	$X=5.8545 $Y=1.2225
C38	I1/avC6#2	VSS	3.10907e-17	$X=5.369 $Y=2.394
C39	I2/avC6#3	VSS	3.05794e-17	$X=5.369 $Y=1.2245
C40	avC9#4	VSS	1.91438e-17	$X=4.8 $Y=2.047
C41	avC12#4	VSS	1.90215e-17	$X=4.8 $Y=1.5715
C42	I1/avC5#5	VSS	2.6671e-17	$X=4.3705 $Y=2.225
C43	I1/avC5#6	VSS	2.52221e-17	$X=4.17 $Y=2.225
C44	I2/avC5#7	VSS	2.51157e-17	$X=4.17 $Y=1.3935
C45	I1/avC3#2	VSS	2.99398e-17	$X=2.877 $Y=2.394
C46	I2/avC3#3	VSS	2.87484e-17	$X=2.877 $Y=1.2245
C47	CLK#5	VSS	1.61151e-17	$X=2.2335 $Y=2.047
C48	avC13#2	VSS	1.88377e-17	$X=2.2335 $Y=1.5715
C49	CLK#3	VSS	1.97748e-17	$X=1.793 $Y=2.103
C50	RST#1	VSS	3.94076e-17	$X=1.82 $Y=1.4415
C51	avC11#14	VSS	5.20405e-17	$X=9.7035 $Y=0.8095
C52	avC14#4	VSS	2.66541e-17	$X=9.527 $Y=0.784
C53	avC7#7	VSS	3.01567e-17	$X=9.0525 $Y=0.6835
C54	avC8#7	VSS	2.52263e-17	$X=8.597 $Y=0.662
C55	avC11#13	VSS	2.65657e-17	$X=8.1445 $Y=0.7835
C56	avC14#3	VSS	4.93099e-17	$X=7.9305 $Y=0.81
C57	avC12#14	VSS	2.33752e-17	$X=7.4375 $Y=2.949
C58	avC11#9	VSS	2.33976e-17	$X=7.437 $Y=0.67
C59	I1/avC6#4	VSS	2.64557e-17	$X=6.9785 $Y=2.9455
C60	I2/avC6#6	VSS	2.41805e-17	$X=6.9785 $Y=0.6735
C61	I2/avC9#5	VSS	1.89284e-17	$X=6.52 $Y=0.67
C62	I1/avC9#7	VSS	2.40701e-17	$X=6.318 $Y=2.9485
C63	I2/avC9#6	VSS	2.49835e-17	$X=6.318 $Y=0.67
C64	I1/avC6#3	VSS	7.49887e-17	$X=5.6475 $Y=2.78
C65	I2/avC6#2	VSS	7.5567e-17	$X=5.6475 $Y=0.8385
C66	CLK#7	VSS	2.49211e-17	$X=4.8035 $Y=2.8725
C67	avC13#4	VSS	2.53006e-17	$X=4.8035 $Y=0.746
C68	I2/avC5#5	VSS	2.18931e-17	$X=4.35 $Y=0.67
C69	I1/avC5#7	VSS	2.3123e-17	$X=4.148 $Y=2.9485
C70	I2/avC5#6	VSS	2.30151e-17	$X=4.148 $Y=0.67
C71	RST#5	VSS	2.45929e-17	$X=3.6765 $Y=2.8935
C72	RST#7	VSS	2.45946e-17	$X=3.6765 $Y=0.725
C73	I1/avC3#3	VSS	7.90071e-17	$X=3.345 $Y=2.78
C74	I2/avC3#2	VSS	8.034e-17	$X=3.345 $Y=0.8385
C75	avC9#2	VSS	2.49608e-17	$X=2.2415 $Y=2.8725
C76	avC12#2	VSS	2.66689e-17	$X=2.2415 $Y=0.746
C77	CLK#1	VSS	3.98753e-17	$X=1.8105 $Y=2.9035
C78	RST#3	VSS	2.70768e-17	$X=1.7835 $Y=0.6325
C79	avC14#7	VSS	3.22193e-17	$X=9.7215 $Y=1.558
C80	avC11#16	VSS	3.0834e-17	$X=9.585 $Y=1.5075
C81	avC14#5	VSS	2.05008e-16	$X=9.3035 $Y=0.7115
C82	avC7#6	VSS	1.8903e-17	$X=9.0575 $Y=0.99
C83	avC8#6	VSS	1.90107e-17	$X=8.5985 $Y=0.9505
C84	avC8#3	VSS	1.09417e-17	$X=8.329 $Y=2.6515
C85	avC11#12	VSS	1.90805e-16	$X=8.2405 $Y=0.69
C86	avC11#11	VSS	2.43192e-17	$X=7.9395 $Y=1.495
C87	avC7#3	VSS	1.22201e-17	$X=7.8685 $Y=2.6515
C88	avC12#16	VSS	5.8228e-17	$X=7.316 $Y=2.636
C89	avC11#8	VSS	5.83592e-17	$X=7.316 $Y=0.9825
C90	I1/avC6#5	VSS	1.95275e-17	$X=6.9785 $Y=2.6485
C91	I2/avC6#5	VSS	1.92787e-17	$X=6.9785 $Y=0.971
C92	I1/avC9#4	VSS	7.3508e-17	$X=6.233 $Y=2.6325
C93	I2/avC9#4	VSS	7.61221e-17	$X=6.233 $Y=0.986
C94	avC10#2	VSS	4.34465e-17	$X=5.872 $Y=2.5865
C95	avC10#4	VSS	4.41099e-17	$X=5.872 $Y=1.031
C96	CLK#6	VSS	3.05152e-17	$X=4.811 $Y=2.6115
C97	avC9#3	VSS	2.68525e-17	$X=4.8075 $Y=2.254
C98	avC12#3	VSS	2.66882e-17	$X=4.8075 $Y=1.3645
C99	avC13#3	VSS	3.00445e-17	$X=4.811 $Y=1.007
C100	I1/avC5#4	VSS	8.22823e-17	$X=4.099 $Y=2.632
C101	I2/avC5#4	VSS	8.61118e-17	$X=4.099 $Y=0.9865
C102	RST#4	VSS	2.25198e-17	$X=3.7655 $Y=2.6465
C103	RST#6	VSS	2.25487e-17	$X=3.7655 $Y=0.972
C104	CLK#4	VSS	7.99637e-17	$X=2.336 $Y=2.2805
C105	CLK#2	VSS	6.72738e-17	$X=1.8385 $Y=2.428
C106	RST#2	VSS	3.51864e-17	$X=1.821 $Y=0.9905
C107	VDD#55	VSS	5.97215e-18	$X=4.975 $Y=1.8095
C108	VDD#54	VSS	9.75155e-18	$X=4.975 $Y=1.8095
C109	avC13#19	VSS	1.24494e-16	$X=7.3235 $Y=1.904
C110	avC12#31	VSS	8.92895e-17	$X=7.042 $Y=1.684
C111	avC12#29	VSS	7.67398e-17	$X=6.65 $Y=1.5295
C112	avC12#30	VSS	1.79395e-16	$X=6.1255 $Y=1.097
C113	avC13#17	VSS	8.3643e-17	$X=6.3675 $Y=1.7785
C114	avC13#18	VSS	1.60158e-16	$X=5.8385 $Y=1.501
C115	VDD#52	VSS	3.20145e-17	$X=4.975 $Y=1.8095
C116	avC13#8	VSS	1.21301e-16	$X=3.549 $Y=1.4675
C117	avC12#12	VSS	1.84136e-16	$X=3.0245 $Y=1.1215
C118	avC8#19	VSS	1.06179e-16	$X=8.22 $Y=2.394
C119	avC8#21	VSS	1.00942e-16	$X=8.232 $Y=1.1055
C120	avC7#19	VSS	1.40619e-16	$X=7.8005 $Y=2.4245
C121	avC7#22	VSS	2.05801e-16	$X=7.898 $Y=1.286
C122	avC13#16	VSS	1.0176e-16	$X=7.496 $Y=2.5735
C123	avC14#17	VSS	1.00979e-16	$X=7.5715 $Y=1.581
C124	avC14#14	VSS	4.5692e-17	$X=7.5135 $Y=1.0775
C125	avC12#25	VSS	3.22693e-16	$X=6.5325 $Y=2.7645
C126	avC12#28	VSS	3.93265e-17	$X=7.104 $Y=2.3245
C127	avC11#27	VSS	7.57492e-17	$X=7.1835 $Y=1.178
C128	avC11#24	VSS	3.40363e-16	$X=6.5125 $Y=0.8505
C129	VDD#51	VSS	2.56655e-17	$X=4.975 $Y=1.8095
C130	avC13#9	VSS	1.15969e-16	$X=2.822 $Y=1.373
C131	avC12#13	VSS	1.04875e-16	$X=2.592 $Y=1.078
C132	avC12#9	VSS	4.87061e-16	$X=3.399 $Y=2.7665
C133	avC12#10	VSS	1.06918e-16	$X=2.3535 $Y=2.451
C134	avC11#5	VSS	1.37658e-16	$X=2.34 $Y=1.1675
C135	avC11#4	VSS	5.10143e-16	$X=3.3775 $Y=0.8515
C136	avC10#8	VSS	7.63799e-16	$X=3.1875 $Y=2.484
C137	avC10#9	VSS	7.66113e-16	$X=3.1905 $Y=1.135
C138	RST#12	VSS	4.42116e-16	$X=2.5965 $Y=2.4345
C139	RST#13	VSS	2.87506e-16	$X=2.372 $Y=1.1905
C140	avC14#13	VSS	1.40863e-16	$X=9.67 $Y=1.589
C141	avC7#17	VSS	1.48501e-16	$X=9.5225 $Y=1.0695
C142	avC11#23	VSS	2.29043e-16	$X=9.2555 $Y=1.4745
C143	avC14#12	VSS	2.27807e-16	$X=9.227 $Y=1.427
C144	avC7#15	VSS	8.77741e-17	$X=9.0755 $Y=1.058
C145	avC8#17	VSS	2.44592e-16	$X=8.9655 $Y=0.968
C146	avC7#10	VSS	1.69271e-16	$X=8.5775 $Y=1.068
C147	avC8#12	VSS	5.0935e-17	$X=8.5205 $Y=0.904
C148	CLK_out#4	VSS	1.64314e-16	$X=8.2045 $Y=2.8275
C149	avC11#22	VSS	2.89686e-16	$X=8.408 $Y=1.3115
C150	avC8#11	VSS	7.06114e-17	$X=8.328 $Y=2.644
C151	avC14#11	VSS	9.88796e-17	$X=8.083 $Y=1.546
C152	CLK_out_b#4	VSS	1.23966e-16	$X=7.9865 $Y=2.102
C153	avC8#9	VSS	1.34175e-16	$X=7.9665 $Y=0.9355
C154	avC11#21	VSS	1.16925e-16	$X=7.873 $Y=1.5205
C155	avC7#8	VSS	7.14314e-17	$X=7.871 $Y=2.644
C156	avC13#14	VSS	4.9684e-17	$X=7.537 $Y=2.6715
C157	avC14#9	VSS	1.00631e-16	$X=7.5155 $Y=0.9515
C158	avC12#22	VSS	5.15617e-17	$X=7.089 $Y=2.3955
C159	avC11#19	VSS	3.22249e-17	$X=7.08 $Y=1.1995
C160	I1/avC6#13	VSS	9.50557e-17	$X=6.8475 $Y=2.631
C161	I2/avC6#13	VSS	9.23236e-17	$X=6.8475 $Y=0.9875
C162	I1/avC6#9	VSS	7.31457e-17	$X=6.4805 $Y=2.6065
C163	I2/avC6#9	VSS	7.78931e-17	$X=6.4805 $Y=1.0115
C164	I1/avC6#12	VSS	1.11582e-16	$X=6.317 $Y=2.0925
C165	I2/avC6#12	VSS	1.12255e-16	$X=6.317 $Y=1.526
C166	I1/avC9#14	VSS	1.40052e-16	$X=5.978 $Y=2.4065
C167	I2/avC9#14	VSS	1.40993e-16	$X=5.978 $Y=1.212
C168	avC10#10	VSS	4.5595e-16	$X=5.9045 $Y=2.6225
C169	avC10#11	VSS	4.56604e-16	$X=5.904 $Y=0.9945
C170	I1/avC6#7	VSS	1.49012e-16	$X=5.5155 $Y=2.1495
C171	I2/avC6#7	VSS	1.5077e-16	$X=5.5155 $Y=1.469
C172	I1/avC9#11	VSS	1.16486e-16	$X=5.228 $Y=2.3935
C173	I2/avC9#11	VSS	1.15452e-16	$X=5.2285 $Y=1.2255
C174	VDD#15	VSS	1.76241e-16	$X=5.205 $Y=1.8095
C175	CLK#18	VSS	1.97954e-16	$X=4.792 $Y=2.5285
C176	avC9#11	VSS	1.8659e-16	$X=4.8045 $Y=2.251
C177	avC12#20	VSS	1.8917e-16	$X=4.8045 $Y=1.3675
C178	avC13#12	VSS	1.97646e-16	$X=4.792 $Y=1.09
C179	I1/avC3#5	VSS	2.04845e-16	$X=4.208 $Y=2.089
C180	I2/avC3#5	VSS	2.06109e-16	$X=4.208 $Y=1.5295
C181	I1/avC5#16	VSS	1.06429e-16	$X=3.909 $Y=2.4215
C182	I2/avC5#16	VSS	1.06713e-16	$X=3.909 $Y=1.1965
C183	RST#14	VSS	2.83006e-16	$X=3.4685 $Y=2.6555
C184	RST#15	VSS	1.7761e-16	$X=3.5785 $Y=0.9425
C185	I1/avC5#14	VSS	2.52422e-16	$X=3.627 $Y=2.4215
C186	I2/avC5#14	VSS	2.53207e-16	$X=3.627 $Y=1.1965
C187	avC9#10	VSS	3.22227e-16	$X=3.8195 $Y=2.227
C188	avC12#19	VSS	3.25523e-16	$X=3.8195 $Y=1.3915
C189	CLK#15	VSS	2.72897e-16	$X=3.6495 $Y=2.486
C190	CLK#16	VSS	2.17386e-16	$X=3.322 $Y=2.266
C191	avC13#10	VSS	1.83996e-16	$X=3.3255 $Y=1.349
C192	avC13#11	VSS	2.80108e-16	$X=3.6495 $Y=1.1325
C193	avC9#9	VSS	2.66577e-16	$X=3.1755 $Y=2.4185
C194	avC12#18	VSS	2.5512e-16	$X=3.176 $Y=1.1985
C195	I1/avC3#4	VSS	2.36268e-16	$X=3.1565 $Y=2.1455
C196	I2/avC3#4	VSS	2.37758e-16	$X=3.1565 $Y=1.473
C197	I1/avC5#11	VSS	2.34664e-16	$X=2.816 $Y=2.3905
C198	I2/avC5#11	VSS	2.3461e-16	$X=2.8175 $Y=1.228
C199	CLK#13	VSS	6.58865e-17	$X=2.284 $Y=2.2485
C200	avC13#7	VSS	7.8517e-17	$X=2.352 $Y=1.3715
C201	avC9#8	VSS	2.34766e-16	$X=2.526 $Y=2.54
C202	avC12#8	VSS	1.56934e-16	$X=2.345 $Y=1.0645
C203	avC12#6	VSS	1.3843e-16	$X=2.2195 $Y=2.408
C204	avC11#2	VSS	1.23928e-16	$X=2.2195 $Y=1.2105
C205	avC9#6	VSS	1.35327e-16	$X=2.066 $Y=2.54
C206	avC10#6	VSS	1.07495e-16	$X=1.9955 $Y=0.8545
C207	CLK#8	VSS	5.19816e-17	$X=1.8495 $Y=2.291
C208	RST#8	VSS	1.65793e-17	$X=1.71 $Y=0.9205
C209	VDD#7	VSS	2.95269e-15	$X=6.7545 $Y=1.809
C210	avC7#16	VSS	6.60588e-17	$X=9.535 $Y=1.3005
C211	VDD#22	VSS	1.34509e-16	$X=9.3195 $Y=1.296
C212	VDD#25	VSS	1.32883e-16	$X=9.01 $Y=1.397
C213	avC8#16	VSS	1.06527e-16	$X=8.823 $Y=1.372
C214	avC7#9	VSS	8.32949e-17	$X=8.5805 $Y=1.391
C215	VDD#26	VSS	1.11111e-16	$X=8.397 $Y=1.397
C216	CLK_out#1	VSS	1.01652e-16	$X=8.376 $Y=2.267
C217	VDD#27	VSS	8.07861e-17	$X=8.2125 $Y=2.2435
C218	VDD#28	VSS	1.13515e-16	$X=8.183 $Y=1.295
C219	avC8#8	VSS	7.91249e-17	$X=7.9955 $Y=1.281
C220	CLK_out_b#2	VSS	4.83666e-17	$X=7.9635 $Y=2.288
C221	VDD#31	VSS	8.81706e-17	$X=7.7755 $Y=2.221
C222	avC7#18	VSS	4.68753e-17	$X=9.583 $Y=0.7875
C223	VDD#24	VSS	9.01069e-17	$X=9.3815 $Y=0.8125
C224	avC8#18	VSS	4.73378e-17	$X=8.9075 $Y=0.7205
C225	avC7#11	VSS	7.08901e-17	$X=8.6395 $Y=0.747
C226	VDD#30	VSS	1.01667e-16	$X=8.212 $Y=0.821
C227	avC8#10	VSS	2.73334e-17	$X=8.0275 $Y=0.761
C228	CLK_out_b#1	VSS	1.10075e-16	$X=7.9875 $Y=2.826
C229	avC13#13	VSS	4.93338e-17	$X=7.5145 $Y=2.892
C230	avC14#10	VSS	4.7065e-17	$X=7.5145 $Y=0.7265
C231	avC12#24	VSS	4.64663e-17	$X=7.067 $Y=2.8875
C232	avC11#18	VSS	4.54265e-17	$X=7.067 $Y=0.7305
C233	I1/avC6#8	VSS	6.07429e-17	$X=6.4285 $Y=2.881
C234	I2/avC6#8	VSS	6.04103e-17	$X=6.4285 $Y=0.7375
C235	I1/avC9#8	VSS	3.45999e-17	$X=5.19 $Y=2.8155
C236	I2/avC9#8	VSS	3.55056e-17	$X=5.1915 $Y=0.8085
C237	I1/avC9#13	VSS	5.41243e-17	$X=5.0185 $Y=2.7995
C238	I2/avC9#12	VSS	5.35944e-17	$X=5.0185 $Y=0.819
C239	I1/avC3#6	VSS	3.25311e-17	$X=4.7275 $Y=2.8445
C240	I2/avC3#10	VSS	3.26733e-17	$X=4.7275 $Y=0.774
C241	I1/avC3#12	VSS	5.84702e-17	$X=4.322 $Y=2.8795
C242	I2/avC3#9	VSS	5.79301e-17	$X=4.322 $Y=0.739
C243	I1/avC5#15	VSS	6.18431e-17	$X=3.629 $Y=2.8075
C244	I2/avC5#15	VSS	6.20581e-17	$X=3.629 $Y=0.811
C245	I1/avC5#8	VSS	3.34183e-17	$X=2.6665 $Y=2.8155
C246	I2/avC5#8	VSS	3.56373e-17	$X=2.67 $Y=0.8085
C247	I1/avC5#13	VSS	5.55859e-17	$X=2.5285 $Y=2.7995
C248	I2/avC5#12	VSS	5.53799e-17	$X=2.5285 $Y=0.819
C249	avC12#5	VSS	5.73222e-17	$X=2.217 $Y=2.8095
C250	avC11#3	VSS	6.20347e-17	$X=2.2175 $Y=0.809
C251	avC13#15	VSS	8.41314e-17	$X=7.486 $Y=2.2425
C252	avC14#8	VSS	9.12654e-17	$X=7.486 $Y=1.376
C253	VDD#33	VSS	8.51339e-17	$X=7.3065 $Y=2.221
C254	VDD#32	VSS	8.79155e-17	$X=7.3065 $Y=1.397
C255	avC12#23	VSS	5.32963e-17	$X=7.0585 $Y=2.191
C256	avC11#20	VSS	5.3793e-17	$X=7.0585 $Y=1.4275
C257	VDD#35	VSS	6.43854e-17	$X=6.875 $Y=2.221
C258	VDD#34	VSS	6.57122e-17	$X=6.875 $Y=1.397
C259	VDD#37	VSS	5.74172e-17	$X=6.6245 $Y=2.221
C260	VDD#36	VSS	5.88068e-17	$X=6.6245 $Y=1.397
C261	I1/avC6#10	VSS	4.3786e-17	$X=6.4375 $Y=2.258
C262	I2/avC6#10	VSS	4.29179e-17	$X=6.4375 $Y=1.3605
C263	VDD#39	VSS	8.91516e-17	$X=6.253 $Y=2.221
C264	VDD#38	VSS	9.03417e-17	$X=6.253 $Y=1.397
C265	VDD#41	VSS	2.61968e-17	$X=5.7775 $Y=2.3715
C266	VDD#40	VSS	2.63056e-17	$X=5.7775 $Y=1.2465
C267	VDD#43	VSS	4.98022e-17	$X=5.515 $Y=2.3715
C268	VDD#42	VSS	4.94528e-17	$X=5.515 $Y=1.2465
C269	I1/avC9#9	VSS	3.92064e-17	$X=5.195 $Y=2.463
C270	I2/avC9#9	VSS	3.69025e-17	$X=5.1925 $Y=1.159
C271	I1/avC9#12	VSS	8.24766e-17	$X=5.013 $Y=2.0915
C272	I2/avC9#13	VSS	8.36854e-17	$X=5.013 $Y=1.527
C273	I1/avC3#11	VSS	7.89184e-17	$X=4.7445 $Y=2.127
C274	I2/avC3#6	VSS	7.91323e-17	$X=4.7445 $Y=1.4915
C275	VDD#45	VSS	8.97362e-17	$X=4.5825 $Y=2.221
C276	VDD#44	VSS	9.11101e-17	$X=4.5825 $Y=1.397
C277	I1/avC3#9	VSS	4.62948e-17	$X=4.389 $Y=2.2585
C278	I2/avC3#11	VSS	4.69269e-17	$X=4.389 $Y=1.3595
C279	VDD#47	VSS	9.43294e-17	$X=4.211 $Y=2.221
C280	VDD#46	VSS	9.48872e-17	$X=4.211 $Y=1.397
C281	VDD#49	VSS	9.23144e-17	$X=2.9975 $Y=2.3715
C282	VDD#48	VSS	9.16191e-17	$X=2.9975 $Y=1.2465
C283	I1/avC5#9	VSS	3.97853e-17	$X=2.6745 $Y=2.463
C284	I2/avC5#9	VSS	3.72191e-17	$X=2.669 $Y=1.159
C285	I1/avC5#12	VSS	8.68962e-17	$X=2.5145 $Y=2.0915
C286	I2/avC5#13	VSS	8.6829e-17	$X=2.5145 $Y=1.527
C287	avC12#7	VSS	5.75022e-17	$X=2.2025 $Y=2.0975
C288	avC9#5	VSS	5.79773e-17	$X=1.951 $Y=2.931
C289	avC10#7	VSS	3.64896e-17	$X=1.9175 $Y=0.6425
C290	avC9#7	VSS	7.737e-17	$X=2.03 $Y=2.153
C291	avC10#5	VSS	8.99388e-17	$X=2.062 $Y=1.4325
C292	VDD#50	VSS	4.51882e-17	$X=1.823 $Y=2.1205
C293	VDD#21	VSS	3.36977e-17	$X=1.823 $Y=1.4975
C294	I1/avC5#2	VSS	1.59555e-17	$X=4.3535 $Y=2.647
C295	I1/avC5#3	VSS	7.79089e-18	$X=4.152 $Y=2.6465
C296	I2/avC5#2	VSS	1.56498e-17	$X=4.3535 $Y=0.9725
C297	I2/avC5#3	VSS	8.18781e-18	$X=4.152 $Y=0.972
C298	CLK#9	VSS	2.72214e-17	$X=1.6915 $Y=2.391
C299	RST#9	VSS	1.73009e-17	$X=1.6915 $Y=0.9555
C300	RST#10	VSS	3.41434e-17	$X=1.7345 $Y=0.9515
C301	I1/avC9#2	VSS	1.77078e-17	$X=6.5205 $Y=2.647
C302	I1/avC9#3	VSS	8.60936e-18	$X=6.3185 $Y=2.6465
C303	I2/avC9#2	VSS	1.6886e-17	$X=6.5205 $Y=0.9725
C304	I2/avC9#3	VSS	8.78841e-18	$X=6.3185 $Y=0.972
C305	CLK#12	VSS	3.37809e-17	$X=2.2875 $Y=2.242
C306	avC13#5	VSS	5.44799e-17	$X=2.3145 $Y=1.3
C307	avC13#6	VSS	3.35302e-17	$X=2.287 $Y=1.377
C308	avC12#15	VSS	1.11523e-17	$X=7.4415 $Y=2.653
C309	avC11#7	VSS	9.5368e-18	$X=7.4415 $Y=0.9665
C310	avC7#2	VSS	1.07937e-17	$X=7.9425 $Y=2.653
C311	avC8#2	VSS	1.16826e-17	$X=8.404 $Y=2.653
C312	RST#16	VSS	4.52749e-17	$X=3.7255 $Y=2.626
C313	RST#17	VSS	4.29114e-17	$X=3.7145 $Y=2.7115
C314	RST#18	VSS	4.34944e-17	$X=3.7145 $Y=0.908
C315	RST#19	VSS	4.51624e-17	$X=3.725 $Y=0.993
C316	I1/avC3#7	VSS	8.80073e-17	$X=4.737 $Y=2.5485
C317	I1/avC3#8	VSS	5.38022e-17	$X=4.2745 $Y=2.595
C318	I2/avC3#7	VSS	8.86499e-17	$X=4.737 $Y=1.071
C319	I2/avC3#8	VSS	5.72092e-17	$X=4.2745 $Y=1.0235
C320	avC12#21	VSS	3.97993e-17	$X=7.0775 $Y=2.637
C321	avC11#17	VSS	4.0052e-17	$X=7.0775 $Y=0.9815
C322	avC8#13	VSS	5.24258e-17	$X=8.5035 $Y=0.934
C323	avC8#14	VSS	3.33027e-17	$X=8.592 $Y=0.9285
C324	avC7#13	VSS	3.27694e-17	$X=9.0965 $Y=0.998
C325	avC7#14	VSS	5.0067e-17	$X=9.1595 $Y=1.003
C326	VDD#2	VSS	1.40825e-16	$X=9.0035 $Y=1.78
C327	VDD#3	VSS	5.71668e-17	$X=8.8055 $Y=1.8095
C328	VDD#4	VSS	5.42552e-17	$X=8.5365 $Y=1.8095
C329	VDD#6	VSS	5.97124e-17	$X=8.193 $Y=1.7915
C330	VDD#9	VSS	1.1122e-16	$X=7.7305 $Y=1.8335
C331	VDD#10	VSS	6.28546e-17	$X=7.288 $Y=1.8095
C332	VDD#11	VSS	4.30793e-17	$X=6.87 $Y=1.8095
C333	VDD#12	VSS	3.33705e-17	$X=6.6285 $Y=1.8095
C334	VDD#13	VSS	5.71834e-17	$X=6.2565 $Y=1.8095
C335	VDD#14	VSS	9.10285e-17	$X=5.6015 $Y=1.8095
C336	VDD#16	VSS	3.13445e-17	$X=4.579 $Y=1.8095
C337	VDD#17	VSS	8.67498e-17	$X=4.14 $Y=1.8095
C338	VDD#18	VSS	1.75059e-16	$X=3.7395 $Y=1.8095
C339	VDD#20	VSS	2.90343e-17	$X=1.981 $Y=1.8095
C340	avC12#27	VSS	3.70026e-17	$X=7.501 $Y=2.4005
C341	avC11#25	VSS	1.06284e-16	$X=7.7085 $Y=1.382
C342	avC14#15	VSS	9.07199e-17	$X=8.888 $Y=1.662
C343	avC14#16	VSS	1.40699e-16	$X=8.021 $Y=1.6285
*
*
.ENDS clk_div4
*
