*
*
*
*                       LINUX           Sun Dec  1 10:42:43 2024
*
*
*
*  PROGRAM  advgen
*
*  Name           : advgen - Quantus - (64-bit)
*  Version        : 21.1.0-p101
*  Build Date     : Wed Mar 17 18:53:08 PDT 2021
*
*  HSPICE LIBRARY
*
*!LENGTH_UNITS METERS
*
*
*

*
.SUBCKT data_reg_bank VDD VSS CLK RST x_in_0 x_in_1 x_in_2 x_in_3 y_in_0 y_in_1
+ y_in_2 y_in_3 clk_div4_out clk_div4_out_b x_out_0 x_out_1 x_out_2 x_out_3
+ x_out_b_0 x_out_b_1 x_out_b_2 x_out_b_3 y_out_0 y_out_1 y_out_2 y_out_3
+ y_out_b_0 y_out_b_1 y_out_b_2 y_out_b_3
*
*
*  caps2d version: 10
*
*
*       TRANSISTOR CARDS
*
*
MI21/avD2_1	VSS#10	avC33#23	avC35#73	VSS#3
+ nmos1v#20ivpcell#20gpdk045	L=4.5e-08	W=2.4e-07
+ AD=3.84e-14	AS=3.84e-14	PD=8e-07	PS=8e-07
+ scc=6.293962e-05 scb=4.542538e-03 sca=5.610579e+00 sb=9.6e-07 sa=3.45e-07
MI21/avD2_2	avC35#76	avC33#21	VSS#10	VSS#3
+ nmos1v#20ivpcell#20gpdk045	L=4.5e-08	W=2.4e-07
+ AD=3.84e-14	AS=3.84e-14	PD=8e-07	PS=8e-07
+ scc=6.297683e-05 scb=4.692024e-03 sca=6.100684e+00 sb=7.55e-07 sa=5.5e-07
MI21/avD2_3	VSS#9	avC33#19	avC35#76	VSS#3
+ nmos1v#20ivpcell#20gpdk045	L=4.5e-08	W=2.4e-07
+ AD=3.84e-14	AS=3.84e-14	PD=8e-07	PS=8e-07
+ scc=6.467461e-05 scb=5.561329e-03 sca=7.132859e+00 sb=5.5e-07 sa=7.55e-07
MI21/avD2_4	avC35#79	avC33#17	VSS#9	VSS#3
+ nmos1v#20ivpcell#20gpdk045	L=4.5e-08	W=2.4e-07
+ AD=3.84e-14	AS=3.84e-14	PD=8e-07	PS=8e-07
+ scc=1.340835e-04 scb=1.004663e-02 sca=9.945785e+00 sb=3.45e-07 sa=9.6e-07
MI21/avD2_5	VSS#1	avC33#5	avC35#79	VSS#3
+ nmos1v#20ivpcell#20gpdk045	L=4.5e-08	W=2.4e-07
+ AD=3.36e-14	AS=3.36e-14	PD=7.8e-07	PS=7.8e-07
+ scc=2.328875e-03 scb=2.727519e-02 sca=2.338158e+01 sb=1.4e-07 sa=1.165e-06
MI21/avD2_6	avC35#73	avC33#24	VSS#11	VSS#3
+ nmos1v#20ivpcell#20gpdk045	L=4.5e-08	W=2.4e-07
+ AD=3.84e-14	AS=3.84e-14	PD=7.8e-07	PS=7.8e-07
+ scc=6.293886e-05 scb=4.518456e-03 sca=5.340032e+00 sb=1.165e-06 sa=1.4e-07
MI25/avD2_1	VSS#18	RST#41	avC31#49	VSS#3
+ nmos1v#20ivpcell#20gpdk045	L=4.5e-08	W=2.4e-07
+ AD=3.84e-14	AS=3.84e-14	PD=8e-07	PS=8e-07
+ scc=6.293884e-05 scb=4.514077e-03 sca=4.774126e+00 sb=9.6e-07 sa=3.45e-07
MI25/avD2_2	avC31#52	RST#39	VSS#18	VSS#3
+ nmos1v#20ivpcell#20gpdk045	L=4.5e-08	W=2.4e-07
+ AD=3.84e-14	AS=3.84e-14	PD=8e-07	PS=8e-07
+ scc=6.293884e-05 scb=4.514077e-03 sca=4.781790e+00 sb=7.55e-07 sa=5.5e-07
MI25/avD2_3	VSS#16	RST#37	avC31#52	VSS#3
+ nmos1v#20ivpcell#20gpdk045	L=4.5e-08	W=2.4e-07
+ AD=3.84e-14	AS=3.84e-14	PD=8e-07	PS=8e-07
+ scc=6.293884e-05 scb=4.514077e-03 sca=4.790855e+00 sb=5.5e-07 sa=7.55e-07
MI25/avD2_4	avC31#55	RST#35	VSS#16	VSS#3
+ nmos1v#20ivpcell#20gpdk045	L=4.5e-08	W=2.4e-07
+ AD=3.84e-14	AS=3.84e-14	PD=8e-07	PS=8e-07
+ scc=6.293884e-05 scb=4.514077e-03 sca=4.801684e+00 sb=3.45e-07 sa=9.6e-07
MI25/avD2_5	VSS#14	RST#23	avC31#55	VSS#3
+ nmos1v#20ivpcell#20gpdk045	L=4.5e-08	W=2.4e-07
+ AD=3.36e-14	AS=3.36e-14	PD=7.8e-07	PS=7.8e-07
+ scc=6.293884e-05 scb=4.514077e-03 sca=4.814769e+00 sb=1.4e-07 sa=1.165e-06
MI25/avD2_6	avC31#49	RST#42	VSS#20	VSS#3
+ nmos1v#20ivpcell#20gpdk045	L=4.5e-08	W=2.4e-07
+ AD=3.84e-14	AS=3.84e-14	PD=7.8e-07	PS=7.8e-07
+ scc=6.293884e-05 scb=4.514077e-03 sca=4.767589e+00 sb=1.165e-06 sa=1.4e-07
MI22/avD2_1	VSS#91	avC34#22	avC36#91	VSS#3
+ nmos1v#20ivpcell#20gpdk045	L=4.5e-08	W=2.4e-07
+ AD=3.84e-14	AS=3.84e-14	PD=8e-07	PS=8e-07
+ scc=7.825402e-10 scb=2.846010e-05 sca=1.114404e+00 sb=9.6e-07 sa=3.45e-07
MI22/avD2_2	avC36#94	avC34#20	VSS#91	VSS#3
+ nmos1v#20ivpcell#20gpdk045	L=4.5e-08	W=2.4e-07
+ AD=3.84e-14	AS=3.84e-14	PD=8e-07	PS=8e-07
+ scc=3.799252e-08 scb=1.779465e-04 sca=1.604508e+00 sb=7.55e-07 sa=5.5e-07
MI22/avD2_3	VSS#89	avC34#18	avC36#94	VSS#3
+ nmos1v#20ivpcell#20gpdk045	L=4.5e-08	W=2.4e-07
+ AD=3.84e-14	AS=3.84e-14	PD=8e-07	PS=8e-07
+ scc=1.735769e-06 scb=1.047251e-03 sca=2.636684e+00 sb=5.5e-07 sa=7.55e-07
MI22/avD2_4	avC36#97	avC34#16	VSS#89	VSS#3
+ nmos1v#20ivpcell#20gpdk045	L=4.5e-08	W=2.4e-07
+ AD=3.84e-14	AS=3.84e-14	PD=8e-07	PS=8e-07
+ scc=7.114470e-05 scb=5.532548e-03 sca=5.449610e+00 sb=3.45e-07 sa=9.6e-07
MI22/avD2_5	VSS#47	avC34#15	avC36#97	VSS#3
+ nmos1v#20ivpcell#20gpdk045	L=4.5e-08	W=2.4e-07
+ AD=3.36e-14	AS=3.36e-14	PD=7.8e-07	PS=7.8e-07
+ scc=2.265936e-03 scb=2.276111e-02 sca=1.888540e+01 sb=1.4e-07 sa=1.165e-06
MI22/avD2_6	avC36#91	avC34#14	VSS#93	VSS#3
+ nmos1v#20ivpcell#20gpdk045	L=4.5e-08	W=2.4e-07
+ AD=3.84e-14	AS=3.84e-14	PD=7.8e-07	PS=7.8e-07
+ scc=1.550279e-11 scb=4.378570e-06 sca=8.438566e-01 sb=1.165e-06 sa=1.4e-07
MI10/avD2_1	VSS#98	avC31#46	avC32#51	VSS#3
+ nmos1v#20ivpcell#20gpdk045	L=4.5e-08	W=2.4e-07
+ AD=3.84e-14	AS=3.84e-14	PD=8e-07	PS=8e-07
+ scc=3.300220e-22 scb=3.246439e-11 sca=3.684364e-01 sb=9.6e-07 sa=3.45e-07
MI10/avD2_2	avC32#54	avC31#44	VSS#98	VSS#3
+ nmos1v#20ivpcell#20gpdk045	L=4.5e-08	W=2.4e-07
+ AD=3.84e-14	AS=3.84e-14	PD=8e-07	PS=8e-07
+ scc=1.776812e-20 scb=2.054542e-10 sca=3.974748e-01 sb=7.55e-07 sa=5.5e-07
MI10/avD2_3	VSS#97	avC31#42	avC32#54	VSS#3
+ nmos1v#20ivpcell#20gpdk045	L=4.5e-08	W=2.4e-07
+ AD=3.84e-14	AS=3.84e-14	PD=8e-07	PS=8e-07
+ scc=9.766382e-19 scb=1.428693e-09 sca=4.353727e-01 sb=5.5e-07 sa=7.55e-07
MI10/avD2_4	avC32#57	avC31#40	VSS#97	VSS#3
+ nmos1v#20ivpcell#20gpdk045	L=4.5e-08	W=2.4e-07
+ AD=3.84e-14	AS=3.84e-14	PD=8e-07	PS=8e-07
+ scc=5.320237e-17 scb=9.994432e-09 sca=4.861380e-01 sb=3.45e-07 sa=9.6e-07
MI10/avD2_5	VSS#95	avC31#39	avC32#57	VSS#3
+ nmos1v#20ivpcell#20gpdk045	L=4.5e-08	W=2.4e-07
+ AD=3.36e-14	AS=3.36e-14	PD=7.8e-07	PS=7.8e-07
+ scc=2.864636e-15 scb=6.925950e-08 sca=5.563310e-01 sb=1.4e-07 sa=1.165e-06
MI10/avD2_6	avC32#51	avC31#38	VSS#99	VSS#3
+ nmos1v#20ivpcell#20gpdk045	L=4.5e-08	W=2.4e-07
+ AD=3.84e-14	AS=3.84e-14	PD=7.8e-07	PS=7.8e-07
+ scc=1.538709e-23 scb=8.197082e-12 sca=3.456967e-01 sb=1.165e-06 sa=1.4e-07
MI7/I1/avD2_1	I7/I1/avC5#13	I7/avC6#2	I7/avC12#5	VSS#3
+ nmos1v#20ivpcell#20gpdk045	L=4.5e-08	W=1.2e-07
+ AD=1.68e-14	AS=1.68e-14	PD=5.2e-07	PS=5.2e-07
+ scc=1.376762e-05 scb=3.108630e-03 sca=5.522731e+00 sb=1.4e-07 sa=1.4e-07
MI7/I1/avD2_2	VSS#44	I7/I1/avC3#3	I7/I1/avC5#8	VSS#3
+ nmos1v#20ivpcell#20gpdk045	L=5.7e-07	W=1.2e-07
+ AD=1.68e-14	AS=1.68e-14	PD=5.2e-07	PS=5.2e-07
+ scc=1.329271e-05 scb=2.533884e-03 sca=4.049105e+00 sb=1.4e-07 sa=1.4e-07
MI7/I1/avD2_3	VSS#42	RST#5	I7/I1/avC5#15	VSS#3
+ nmos1v#20ivpcell#20gpdk045	L=4.5e-08	W=1.2e-07
+ AD=1.68e-14	AS=1.68e-14	PD=5.2e-07	PS=5.2e-07
+ scc=1.329271e-05 scb=2.531773e-03 sca=3.763805e+00 sb=1.4e-07 sa=1.4e-07
MI7/I1/avD2_4	I7/I1/avC3#12	I7/I1/avC5#7	VSS#40	VSS#3
+ nmos1v#20ivpcell#20gpdk045	L=4.5e-08	W=2.4e-07
+ AD=3.84e-14	AS=3.84e-14	PD=7.8e-07	PS=7.8e-07
+ scc=6.293884e-05 scb=4.514078e-03 sca=4.851750e+00 sb=3.45e-07 sa=1.4e-07
MI7/I1/avD2_5	VSS#38	I7/I1/avC5	I7/I1/avC3#12	VSS#3
+ nmos1v#20ivpcell#20gpdk045	L=4.5e-08	W=2.4e-07
+ AD=3.36e-14	AS=3.36e-14	PD=7.8e-07	PS=7.8e-07
+ scc=6.293884e-05 scb=4.514078e-03 sca=4.831650e+00 sb=1.4e-07 sa=3.45e-07
MI7/I1/avD2_6	I7/I1/avC9#13	CLK#7	I7/I1/avC3#6	VSS#3
+ nmos1v#20ivpcell#20gpdk045	L=4.5e-08	W=1.2e-07
+ AD=1.68e-14	AS=1.68e-14	PD=5.2e-07	PS=5.2e-07
+ scc=1.329271e-05 scb=2.531772e-03 sca=3.642621e+00 sb=1.4e-07 sa=1.4e-07
MI7/I1/avD2_7	VSS#35	I7/I1/avC6#3	I7/I1/avC9#8	VSS#3
+ nmos1v#20ivpcell#20gpdk045	L=5.7e-07	W=1.2e-07
+ AD=1.68e-14	AS=1.68e-14	PD=5.2e-07	PS=5.2e-07
+ scc=1.329271e-05 scb=2.531772e-03 sca=3.609074e+00 sb=1.4e-07 sa=1.4e-07
MI7/I1/avD2_8	I7/I1/avC6#8	I7/I1/avC9#7	VSS#33	VSS#3
+ nmos1v#20ivpcell#20gpdk045	L=4.5e-08	W=2.4e-07
+ AD=3.84e-14	AS=3.84e-14	PD=7.8e-07	PS=7.8e-07
+ scc=6.293884e-05 scb=4.514077e-03 sca=4.750263e+00 sb=3.45e-07 sa=1.4e-07
MI7/I1/avD2_9	VSS#31	I7/I1/avC9	I7/I1/avC6#8	VSS#3
+ nmos1v#20ivpcell#20gpdk045	L=4.5e-08	W=2.4e-07
+ AD=3.36e-14	AS=3.36e-14	PD=7.8e-07	PS=7.8e-07
+ scc=6.293884e-05 scb=4.514077e-03 sca=4.747084e+00 sb=1.4e-07 sa=3.45e-07
MI7/I1/avD2_10	I7/avC12#29	I7/I1/avC6#4	VSS#29	VSS#3
+ nmos1v#20ivpcell#20gpdk045	L=4.5e-08	W=2.4e-07
+ AD=3.36e-14	AS=3.36e-14	PD=7.6e-07	PS=7.6e-07
+ scc=6.293884e-05 scb=4.514077e-03 sca=4.747084e+00 sb=1.4e-07 sa=1.4e-07
MI7/I1/avD2_11	I7/avC13#17	I7/avC12#14	VSS#27	VSS#3
+ nmos1v#20ivpcell#20gpdk045	L=4.5e-08	W=2.4e-07
+ AD=3.36e-14	AS=3.36e-14	PD=7.6e-07	PS=7.6e-07
+ scc=6.293884e-05 scb=4.514077e-03 sca=4.747084e+00 sb=1.4e-07 sa=1.4e-07
MI7/I2/avD2_1	I7/I2/avC5#12	I7/avC12#2	I7/avC11#3	VSS#3
+ nmos1v#20ivpcell#20gpdk045	L=4.5e-08	W=1.2e-07
+ AD=1.68e-14	AS=1.68e-14	PD=5.2e-07	PS=5.2e-07
+ scc=4.749125e-07 scb=5.768575e-04 sca=2.189808e+00 sb=1.4e-07 sa=1.4e-07
MI7/I2/avD2_2	VSS#127	I7/I2/avC3#2	I7/I2/avC5#8	VSS#3
+ nmos1v#20ivpcell#20gpdk045	L=5.7e-07	W=1.2e-07
+ AD=1.68e-14	AS=1.68e-14	PD=5.2e-07	PS=5.2e-07
+ scc=9.814598e-12 scb=2.111303e-06 sca=7.161817e-01 sb=1.4e-07 sa=1.4e-07
MI7/I2/avD2_3	VSS#124	RST#7	I7/I2/avC5#15	VSS#3
+ nmos1v#20ivpcell#20gpdk045	L=4.5e-08	W=1.2e-07
+ AD=1.68e-14	AS=1.68e-14	PD=5.2e-07	PS=5.2e-07
+ scc=3.335863e-19 scb=8.497321e-10 sca=4.308817e-01 sb=1.4e-07 sa=1.4e-07
MI7/I2/avD2_4	I7/I2/avC3#9	I7/I2/avC5#6	VSS#122	VSS#3
+ nmos1v#20ivpcell#20gpdk045	L=4.5e-08	W=2.4e-07
+ AD=3.84e-14	AS=3.84e-14	PD=7.8e-07	PS=7.8e-07
+ scc=4.669431e-23 scb=1.406638e-11 sca=3.555750e-01 sb=3.45e-07 sa=1.4e-07
MI7/I2/avD2_5	VSS#121	I7/I2/avC5#5	I7/I2/avC3#9	VSS#3
+ nmos1v#20ivpcell#20gpdk045	L=4.5e-08	W=2.4e-07
+ AD=3.36e-14	AS=3.36e-14	PD=7.8e-07	PS=7.8e-07
+ scc=1.030740e-23 scb=5.631719e-12 sca=3.354752e-01 sb=1.4e-07 sa=3.45e-07
MI7/I2/avD2_6	I7/I2/avC9#12	I7/avC13#4	I7/I2/avC3#10	VSS#3
+ nmos1v#20ivpcell#20gpdk045	L=4.5e-08	W=1.2e-07
+ AD=1.68e-14	AS=1.68e-14	PD=5.2e-07	PS=5.2e-07
+ scc=1.762048e-23 scb=6.514790e-12 sca=3.096974e-01 sb=1.4e-07 sa=1.4e-07
MI7/I2/avD2_7	VSS#118	I7/I2/avC6#2	I7/I2/avC9#8	VSS#3
+ nmos1v#20ivpcell#20gpdk045	L=5.7e-07	W=1.2e-07
+ AD=1.68e-14	AS=1.68e-14	PD=5.2e-07	PS=5.2e-07
+ scc=1.762042e-23 scb=6.499702e-12 sca=2.761506e-01 sb=1.4e-07 sa=1.4e-07
MI7/I2/avD2_8	I7/I2/avC6#8	I7/I2/avC9#6	VSS#116	VSS#3
+ nmos1v#20ivpcell#20gpdk045	L=4.5e-08	W=2.4e-07
+ AD=3.84e-14	AS=3.84e-14	PD=7.8e-07	PS=7.8e-07
+ scc=9.645532e-24 scb=4.272685e-12 sca=2.540874e-01 sb=3.45e-07 sa=1.4e-07
MI7/I2/avD2_9	VSS#114	I7/I2/avC9#5	I7/I2/avC6#8	VSS#3
+ nmos1v#20ivpcell#20gpdk045	L=4.5e-08	W=2.4e-07
+ AD=3.36e-14	AS=3.36e-14	PD=7.8e-07	PS=7.8e-07
+ scc=9.645532e-24 scb=4.272684e-12 sca=2.509087e-01 sb=1.4e-07 sa=3.45e-07
MI7/I2/avD2_10	I7/avC11#20	I7/I2/avC6#6	VSS#113	VSS#3
+ nmos1v#20ivpcell#20gpdk045	L=4.5e-08	W=2.4e-07
+ AD=3.36e-14	AS=3.36e-14	PD=7.6e-07	PS=7.6e-07
+ scc=9.645532e-24 scb=4.272684e-12 sca=2.509087e-01 sb=1.4e-07 sa=1.4e-07
MI7/I2/avD2_11	I7/avC14#12	I7/avC11#9	VSS#111	VSS#3
+ nmos1v#20ivpcell#20gpdk045	L=4.5e-08	W=2.4e-07
+ AD=3.36e-14	AS=3.36e-14	PD=7.6e-07	PS=7.6e-07
+ scc=9.645532e-24 scb=4.272684e-12 sca=2.509087e-01 sb=1.4e-07 sa=1.4e-07
MI7/I3/avD2_1	I7/avC5#10	I7/avC14#3	VSS#108	VSS#3
+ nmos1v#20ivpcell#20gpdk045	L=4.5e-08	W=1.2e-07
+ AD=1.92e-14	AS=1.92e-14	PD=5.4e-07	PS=5.4e-07
+ scc=1.76204e-23 scb=6.49967e-12 sca=0.257886 sb=3.45e-07 sa=1.4e-07
MI7/I3/avD2_2	VDD#57	I7/avC11#13	I7/avC5#10	VSS#3
+ nmos1v#20ivpcell#20gpdk045	L=4.5e-08	W=1.2e-07
+ AD=1.68e-14	AS=1.68e-14	PD=5.4e-07	PS=5.4e-07
+ scc=1.76204e-23 scb=6.49967e-12 sca=0.261363 sb=1.4e-07 sa=3.45e-07
MI7/I3/avD2_3	I7/avC4#11	I7/avC5#7	VSS#107	VSS#3
+ nmos1v#20ivpcell#20gpdk045	L=4.5e-08	W=2.4e-07
+ AD=3.36e-14	AS=3.36e-14	PD=7.6e-07	PS=7.6e-07
+ scc=9.64553e-24 scb=4.27268e-12 sca=0.264419 sb=1.4e-07 sa=1.4e-07
MI7/I3/avD2_4	VSS#104	I7/avC4#7	I7/avC5#18	VSS#3
+ nmos1v#20ivpcell#20gpdk045	L=4.5e-08	W=2.4e-07
+ AD=3.36e-14	AS=3.36e-14	PD=7.6e-07	PS=7.6e-07
+ scc=9.64553e-24 scb=4.27274e-12 sca=0.277951 sb=1.4e-07 sa=1.4e-07
MI7/I3/avD2_5	I7/avC4#18	I7/avC14#4	VDD#43	VSS#3
+ nmos1v#20ivpcell#20gpdk045	L=4.5e-08	W=1.2e-07
+ AD=1.92e-14	AS=1.92e-14	PD=5.4e-07	PS=5.4e-07
+ scc=1.76204e-23 scb=6.50513e-12 sca=0.304133 sb=3.45e-07 sa=1.4e-07
MI7/I3/avD2_6	VSS#100	I7/avC11#14	I7/avC4#18	VSS#3
+ nmos1v#20ivpcell#20gpdk045	L=4.5e-08	W=1.2e-07
+ AD=1.68e-14	AS=1.68e-14	PD=5.4e-07	PS=5.4e-07
+ scc=1.76209e-23 scb=6.53953e-12 sca=0.315513 sb=1.4e-07 sa=3.45e-07
MI7/avD2_1	I7/avC6#5	CLK#1	VSS#46	VSS#3
+ nmos1v#20ivpcell#20gpdk045	L=4.5e-08	W=1.2e-07
+ AD=1.68e-14	AS=1.68e-14	PD=5.2e-07	PS=5.2e-07
+ scc=0.00190111 scb=0.0273602 sca=22.3266 sb=1.4e-07 sa=1.4e-07
MI7/avD2_2	I7/avC7#7	RST#3	VSS#129	VSS#3
+ nmos1v#20ivpcell#20gpdk045	L=4.5e-08	W=1.2e-07
+ AD=1.68e-14	AS=1.68e-14	PD=5.2e-07	PS=5.2e-07
+ scc=0.00178852 scb=0.0208638 sca=16.6672 sb=1.4e-07 sa=1.4e-07
MI7/avD2_3	avC34#25	I7/avC4	VSS#24	VSS#3
+ nmos1v#20ivpcell#20gpdk045	L=4.5e-08	W=2.4e-07
+ AD=3.36e-14	AS=3.36e-14	PD=7.6e-07	PS=7.6e-07
+ scc=6.29388e-05 scb=0.00451408 sca=4.74732 sb=1.4e-07 sa=1.4e-07
MI7/avD2_4	avC33#26	I7/avC5	VSS#22	VSS#3
+ nmos1v#20ivpcell#20gpdk045	L=4.5e-08	W=2.4e-07
+ AD=3.36e-14	AS=3.36e-14	PD=7.6e-07	PS=7.6e-07
+ scc=6.29388e-05 scb=0.00451408 sca=4.7559 sb=1.4e-07 sa=1.4e-07
MI4/avD2_1	I4/avC5#13	avC35#34	y_in_3#3	VSS#3
+ nmos1v#20ivpcell#20gpdk045	L=4.5e-08	W=1.2e-07
+ AD=1.68e-14	AS=1.68e-14	PD=5.2e-07	PS=5.2e-07
+ scc=3.826238e-30 scb=3.441640e-15 sca=2.019051e-01 sb=1.4e-07 sa=1.4e-07
MI4/avD2_2	VSS#106	I4/avC3#3	I4/avC5#8	VSS#3
+ nmos1v#20ivpcell#20gpdk045	L=5.7e-07	W=1.2e-07
+ AD=1.68e-14	AS=1.68e-14	PD=5.2e-07	PS=5.2e-07
+ scc=3.826238e-30 scb=3.441668e-15 sca=2.028194e-01 sb=1.4e-07 sa=1.4e-07
MI4/avD2_3	VSS#105	avC32#30	I4/avC5#15	VSS#3
+ nmos1v#20ivpcell#20gpdk045	L=4.5e-08	W=1.2e-07
+ AD=1.68e-14	AS=1.68e-14	PD=5.2e-07	PS=5.2e-07
+ scc=3.826277e-30 scb=3.454117e-15 sca=2.237604e-01 sb=1.4e-07 sa=1.4e-07
MI4/avD2_4	I4/avC3#11	I4/avC5#7	VSS#103	VSS#3
+ nmos1v#20ivpcell#20gpdk045	L=4.5e-08	W=2.4e-07
+ AD=3.84e-14	AS=3.84e-14	PD=7.8e-07	PS=7.8e-07
+ scc=2.264554e-29 scb=8.389732e-15 sca=2.430001e-01 sb=3.45e-07 sa=1.4e-07
MI4/avD2_5	VSS#102	I4/avC5	I4/avC3#11	VSS#3
+ nmos1v#20ivpcell#20gpdk045	L=4.5e-08	W=2.4e-07
+ AD=3.36e-14	AS=3.36e-14	PD=7.8e-07	PS=7.8e-07
+ scc=4.386739e-29 scb=1.568716e-14 sca=2.528736e-01 sb=1.4e-07 sa=3.45e-07
MI4/avD2_6	I4/avC9#13	avC36#58	I4/avC3#5	VSS#3
+ nmos1v#20ivpcell#20gpdk045	L=4.5e-08	W=1.2e-07
+ AD=1.68e-14	AS=1.68e-14	PD=5.2e-07	PS=5.2e-07
+ scc=2.035760e-25 scb=7.650766e-13 sca=2.813804e-01 sb=1.4e-07 sa=1.4e-07
MI4/avD2_7	VSS#96	I4/avC6#3	I4/avC9#8	VSS#3
+ nmos1v#20ivpcell#20gpdk045	L=5.7e-07	W=1.2e-07
+ AD=1.68e-14	AS=1.68e-14	PD=5.2e-07	PS=5.2e-07
+ scc=7.192301e-18 scb=2.257152e-09 sca=3.746165e-01 sb=1.4e-07 sa=1.4e-07
MI4/avD2_8	I4/avC6#8	I4/avC9#7	VSS#94	VSS#3
+ nmos1v#20ivpcell#20gpdk045	L=4.5e-08	W=2.4e-07
+ AD=3.84e-14	AS=3.84e-14	PD=7.8e-07	PS=7.8e-07
+ scc=1.868418e-12 scb=1.585163e-06 sca=6.993123e-01 sb=3.45e-07 sa=1.4e-07
MI4/avD2_9	VSS#92	I4/avC9	I4/avC6#8	VSS#3
+ nmos1v#20ivpcell#20gpdk045	L=4.5e-08	W=2.4e-07
+ AD=3.36e-14	AS=3.36e-14	PD=7.8e-07	PS=7.8e-07
+ scc=9.579880e-11 scb=1.046524e-05 sca=9.046715e-01 sb=1.4e-07 sa=3.45e-07
MI4/avD2_10	y_out_b_3#8	I4/avC6#4	VSS#90	VSS#3
+ nmos1v#20ivpcell#20gpdk045	L=4.5e-08	W=2.4e-07
+ AD=3.36e-14	AS=3.36e-14	PD=7.6e-07	PS=7.6e-07
+ scc=6.275053e-07 scb=6.560697e-04 sca=2.222037e+00 sb=1.4e-07 sa=1.4e-07
MI4/avD2_11	y_out_3#1	y_out_b_3#1	VSS#88	VSS#3
+ nmos1v#20ivpcell#20gpdk045	L=4.5e-08	W=2.4e-07
+ AD=3.36e-14	AS=3.36e-14	PD=7.6e-07	PS=7.6e-07
+ scc=2.265936e-03 scb=2.276111e-02 sca=1.883856e+01 sb=1.4e-07 sa=1.4e-07
MI5/avD2_1	I5/avC5#13	avC35#2	x_in_3#1	VSS#3
+ nmos1v#20ivpcell#20gpdk045	L=4.5e-08	W=1.2e-07
+ AD=1.68e-14	AS=1.68e-14	PD=5.2e-07	PS=5.2e-07
+ scc=2.265936e-03 scb=2.276111e-02 sca=1.883640e+01 sb=1.4e-07 sa=1.4e-07
MI5/avD2_2	VSS#128	I5/avC3#3	I5/avC5#8	VSS#3
+ nmos1v#20ivpcell#20gpdk045	L=5.7e-07	W=1.2e-07
+ AD=1.68e-14	AS=1.68e-14	PD=5.2e-07	PS=5.2e-07
+ scc=8.718644e-08 scb=1.582741e-04 sca=1.348470e+00 sb=1.4e-07 sa=1.4e-07
MI5/avD2_3	VSS#126	avC32#2	I5/avC5#15	VSS#3
+ nmos1v#20ivpcell#20gpdk045	L=4.5e-08	W=1.2e-07
+ AD=1.68e-14	AS=1.68e-14	PD=5.2e-07	PS=5.2e-07
+ scc=3.832718e-15 scb=7.975347e-08 sca=5.134903e-01 sb=1.4e-07 sa=1.4e-07
MI5/avD2_4	I5/avC3#12	I5/avC5#7	VSS#125	VSS#3
+ nmos1v#20ivpcell#20gpdk045	L=4.5e-08	W=2.4e-07
+ AD=3.84e-14	AS=3.84e-14	PD=7.8e-07	PS=7.8e-07
+ scc=4.471498e-19 scb=9.729184e-10 sca=3.802787e-01 sb=3.45e-07 sa=1.4e-07
MI5/avD2_5	VSS#123	I5/avC5	I5/avC3#12	VSS#3
+ nmos1v#20ivpcell#20gpdk045	L=4.5e-08	W=2.4e-07
+ AD=3.36e-14	AS=3.36e-14	PD=7.8e-07	PS=7.8e-07
+ scc=8.117321e-21 scb=1.371925e-10 sca=3.443677e-01 sb=1.4e-07 sa=3.45e-07
MI5/avD2_6	I5/avC9#13	avC36#10	I5/avC3#6	VSS#3
+ nmos1v#20ivpcell#20gpdk045	L=4.5e-08	W=1.2e-07
+ AD=1.68e-14	AS=1.68e-14	PD=5.2e-07	PS=5.2e-07
+ scc=8.887085e-25 scb=1.574063e-12 sca=2.877954e-01 sb=1.4e-07 sa=1.4e-07
MI5/avD2_7	VSS#120	I5/avC6#3	I5/avC9#8	VSS#3
+ nmos1v#20ivpcell#20gpdk045	L=5.7e-07	W=1.2e-07
+ AD=1.68e-14	AS=1.68e-14	PD=5.2e-07	PS=5.2e-07
+ scc=1.653617e-29 scb=7.329339e-15 sca=2.383894e-01 sb=1.4e-07 sa=1.4e-07
MI5/avD2_8	I5/avC6#8	I5/avC9#7	VSS#119	VSS#3
+ nmos1v#20ivpcell#20gpdk045	L=4.5e-08	W=2.4e-07
+ AD=3.84e-14	AS=3.84e-14	PD=7.8e-07	PS=7.8e-07
+ scc=2.226569e-29 scb=7.235866e-15 sca=2.172121e-01 sb=3.45e-07 sa=1.4e-07
MI5/avD2_9	VSS#117	I5/avC9	I5/avC6#8	VSS#3
+ nmos1v#20ivpcell#20gpdk045	L=4.5e-08	W=2.4e-07
+ AD=3.36e-14	AS=3.36e-14	PD=7.8e-07	PS=7.8e-07
+ scc=2.226569e-29 scb=7.235391e-15 sca=2.125699e-01 sb=1.4e-07 sa=3.45e-07
MI5/avD2_10	x_out_b_3#8	I5/avC6#4	VSS#115	VSS#3
+ nmos1v#20ivpcell#20gpdk045	L=4.5e-08	W=2.4e-07
+ AD=3.36e-14	AS=3.36e-14	PD=7.6e-07	PS=7.6e-07
+ scc=2.226569e-29 scb=7.235318e-15 sca=2.040674e-01 sb=1.4e-07 sa=1.4e-07
MI5/avD2_11	x_out_3#1	x_out_b_3#1	VSS#112	VSS#3
+ nmos1v#20ivpcell#20gpdk045	L=4.5e-08	W=2.4e-07
+ AD=3.36e-14	AS=3.36e-14	PD=7.6e-07	PS=7.6e-07
+ scc=2.226569e-29 scb=7.235318e-15 sca=2.040674e-01 sb=1.4e-07 sa=1.4e-07
MI2/avD2_1	I2/avC5#13	avC35#38	y_in_1#3	VSS#3
+ nmos1v#20ivpcell#20gpdk045	L=4.5e-08	W=1.2e-07
+ AD=1.68e-14	AS=1.68e-14	PD=5.2e-07	PS=5.2e-07
+ scc=1.762041e-23 scb=6.499665e-12 sca=2.576480e-01 sb=1.4e-07 sa=1.4e-07
MI2/avD2_2	VSS#170	I2/avC3#3	I2/avC5#8	VSS#3
+ nmos1v#20ivpcell#20gpdk045	L=5.7e-07	W=1.2e-07
+ AD=1.68e-14	AS=1.68e-14	PD=5.2e-07	PS=5.2e-07
+ scc=1.762041e-23 scb=6.499665e-12 sca=2.585623e-01 sb=1.4e-07 sa=1.4e-07
MI2/avD2_3	VSS#168	avC32#34	I2/avC5#15	VSS#3
+ nmos1v#20ivpcell#20gpdk045	L=4.5e-08	W=1.2e-07
+ AD=1.68e-14	AS=1.68e-14	PD=5.2e-07	PS=5.2e-07
+ scc=1.762041e-23 scb=6.499677e-12 sca=2.795033e-01 sb=1.4e-07 sa=1.4e-07
MI2/avD2_4	I2/avC3#11	I2/avC5#7	VSS#166	VSS#3
+ nmos1v#20ivpcell#20gpdk045	L=4.5e-08	W=2.4e-07
+ AD=3.84e-14	AS=3.84e-14	PD=7.8e-07	PS=7.8e-07
+ scc=9.645533e-24 scb=4.273838e-12 sca=2.898414e-01 sb=3.45e-07 sa=1.4e-07
MI2/avD2_5	VSS#164	I2/avC5	I2/avC3#11	VSS#3
+ nmos1v#20ivpcell#20gpdk045	L=4.5e-08	W=2.4e-07
+ AD=3.36e-14	AS=3.36e-14	PD=7.8e-07	PS=7.8e-07
+ scc=9.645554e-24 scb=4.281136e-12 sca=2.997149e-01 sb=1.4e-07 sa=3.45e-07
MI2/avD2_6	I2/avC9#13	avC36#62	I2/avC3#5	VSS#3
+ nmos1v#20ivpcell#20gpdk045	L=4.5e-08	W=1.2e-07
+ AD=1.68e-14	AS=1.68e-14	PD=5.2e-07	PS=5.2e-07
+ scc=1.782398e-23 scb=7.261300e-12 sca=3.371233e-01 sb=1.4e-07 sa=1.4e-07
MI2/avD2_7	VSS#162	I2/avC6#3	I2/avC9#8	VSS#3
+ nmos1v#20ivpcell#20gpdk045	L=5.7e-07	W=1.2e-07
+ AD=1.68e-14	AS=1.68e-14	PD=5.2e-07	PS=5.2e-07
+ scc=7.192319e-18 scb=2.263649e-09 sca=4.303594e-01 sb=1.4e-07 sa=1.4e-07
MI2/avD2_8	I2/avC6#8	I2/avC9#7	VSS#160	VSS#3
+ nmos1v#20ivpcell#20gpdk045	L=4.5e-08	W=2.4e-07
+ AD=3.84e-14	AS=3.84e-14	PD=7.8e-07	PS=7.8e-07
+ scc=1.868418e-12 scb=1.585168e-06 sca=7.461536e-01 sb=3.45e-07 sa=1.4e-07
MI2/avD2_9	VSS#158	I2/avC9	I2/avC6#8	VSS#3
+ nmos1v#20ivpcell#20gpdk045	L=4.5e-08	W=2.4e-07
+ AD=3.36e-14	AS=3.36e-14	PD=7.8e-07	PS=7.8e-07
+ scc=9.579880e-11 scb=1.046524e-05 sca=9.515127e-01 sb=1.4e-07 sa=3.45e-07
MI2/avD2_10	y_out_b_1#8	I2/avC6#4	VSS#156	VSS#3
+ nmos1v#20ivpcell#20gpdk045	L=4.5e-08	W=2.4e-07
+ AD=3.36e-14	AS=3.36e-14	PD=7.6e-07	PS=7.6e-07
+ scc=6.275053e-07 scb=6.560697e-04 sca=2.268879e+00 sb=1.4e-07 sa=1.4e-07
MI2/avD2_11	y_out_1#1	y_out_b_1#1	VSS#155	VSS#3
+ nmos1v#20ivpcell#20gpdk045	L=4.5e-08	W=2.4e-07
+ AD=3.36e-14	AS=3.36e-14	PD=7.6e-07	PS=7.6e-07
+ scc=2.265936e-03 scb=2.276111e-02 sca=1.888540e+01 sb=1.4e-07 sa=1.4e-07
MI0/avD2_1	I0/avC5#13	avC35#6	x_in_1#1	VSS#3
+ nmos1v#20ivpcell#20gpdk045	L=4.5e-08	W=1.2e-07
+ AD=1.68e-14	AS=1.68e-14	PD=5.2e-07	PS=5.2e-07
+ scc=2.265936e-03 scb=2.276111e-02 sca=1.889214e+01 sb=1.4e-07 sa=1.4e-07
MI0/avD2_2	VSS#188	I0/avC3#3	I0/avC5#8	VSS#3
+ nmos1v#20ivpcell#20gpdk045	L=5.7e-07	W=1.2e-07
+ AD=1.68e-14	AS=1.68e-14	PD=5.2e-07	PS=5.2e-07
+ scc=8.718644e-08 scb=1.582741e-04 sca=1.404213e+00 sb=1.4e-07 sa=1.4e-07
MI0/avD2_3	VSS#186	avC32#6	I0/avC5#15	VSS#3
+ nmos1v#20ivpcell#20gpdk045	L=4.5e-08	W=1.2e-07
+ AD=1.68e-14	AS=1.68e-14	PD=5.2e-07	PS=5.2e-07
+ scc=3.832718e-15 scb=7.975996e-08 sca=5.692332e-01 sb=1.4e-07 sa=1.4e-07
MI0/avD2_4	I0/avC3#12	I0/avC5#7	VSS#184	VSS#3
+ nmos1v#20ivpcell#20gpdk045	L=4.5e-08	W=2.4e-07
+ AD=3.84e-14	AS=3.84e-14	PD=7.8e-07	PS=7.8e-07
+ scc=4.471594e-19 scb=9.771838e-10 sca=4.271200e-01 sb=3.45e-07 sa=1.4e-07
MI0/avD2_5	VSS#182	I0/avC5	I0/avC3#12	VSS#3
+ nmos1v#20ivpcell#20gpdk045	L=4.5e-08	W=2.4e-07
+ AD=3.36e-14	AS=3.36e-14	PD=7.8e-07	PS=7.8e-07
+ scc=8.126966e-21 scb=1.414580e-10 sca=3.912090e-01 sb=1.4e-07 sa=3.45e-07
MI0/avD2_6	I0/avC9#13	avC36#14	I0/avC3#6	VSS#3
+ nmos1v#20ivpcell#20gpdk045	L=4.5e-08	W=1.2e-07
+ AD=1.68e-14	AS=1.68e-14	PD=5.2e-07	PS=5.2e-07
+ scc=1.850912e-23 scb=8.070286e-12 sca=3.435383e-01 sb=1.4e-07 sa=1.4e-07
MI0/avD2_7	VSS#180	I0/avC6#3	I0/avC9#8	VSS#3
+ nmos1v#20ivpcell#20gpdk045	L=5.7e-07	W=1.2e-07
+ AD=1.68e-14	AS=1.68e-14	PD=5.2e-07	PS=5.2e-07
+ scc=1.762042e-23 scb=6.503553e-12 sca=2.941323e-01 sb=1.4e-07 sa=1.4e-07
MI0/avD2_8	I0/avC6#8	I0/avC9#7	VSS#178	VSS#3
+ nmos1v#20ivpcell#20gpdk045	L=4.5e-08	W=2.4e-07
+ AD=3.84e-14	AS=3.84e-14	PD=7.8e-07	PS=7.8e-07
+ scc=9.645532e-24 scb=4.272685e-12 sca=2.640533e-01 sb=3.45e-07 sa=1.4e-07
MI0/avD2_9	VSS#176	I0/avC9	I0/avC6#8	VSS#3
+ nmos1v#20ivpcell#20gpdk045	L=4.5e-08	W=2.4e-07
+ AD=3.36e-14	AS=3.36e-14	PD=7.8e-07	PS=7.8e-07
+ scc=9.645532e-24 scb=4.272684e-12 sca=2.594112e-01 sb=1.4e-07 sa=3.45e-07
MI0/avD2_10	x_out_b_1#8	I0/avC6#4	VSS#174	VSS#3
+ nmos1v#20ivpcell#20gpdk045	L=4.5e-08	W=2.4e-07
+ AD=3.36e-14	AS=3.36e-14	PD=7.6e-07	PS=7.6e-07
+ scc=9.645532e-24 scb=4.272684e-12 sca=2.509087e-01 sb=1.4e-07 sa=1.4e-07
MI0/avD2_11	x_out_1#1	x_out_b_1#1	VSS#172	VSS#3
+ nmos1v#20ivpcell#20gpdk045	L=4.5e-08	W=2.4e-07
+ AD=3.36e-14	AS=3.36e-14	PD=7.6e-07	PS=7.6e-07
+ scc=9.645532e-24 scb=4.272684e-12 sca=2.509087e-01 sb=1.4e-07 sa=1.4e-07
MI6/avD2_1	I6/avC5#12	avC35#36	y_in_2#5	VSS#3
+ nmos1v#20ivpcell#20gpdk045	L=4.5e-08	W=1.2e-07
+ AD=1.68e-14	AS=1.68e-14	PD=5.2e-07	PS=5.2e-07
+ scc=3.826238e-30 scb=3.441640e-15 sca=2.019051e-01 sb=1.4e-07 sa=1.4e-07
MI6/avD2_2	VSS#171	I6/avC3#2	I6/avC5#8	VSS#3
+ nmos1v#20ivpcell#20gpdk045	L=5.7e-07	W=1.2e-07
+ AD=1.68e-14	AS=1.68e-14	PD=5.2e-07	PS=5.2e-07
+ scc=3.826238e-30 scb=3.441668e-15 sca=2.028194e-01 sb=1.4e-07 sa=1.4e-07
MI6/avD2_3	VSS#169	avC32#32	I6/avC5#15	VSS#3
+ nmos1v#20ivpcell#20gpdk045	L=4.5e-08	W=1.2e-07
+ AD=1.68e-14	AS=1.68e-14	PD=5.2e-07	PS=5.2e-07
+ scc=3.826277e-30 scb=3.454117e-15 sca=2.237604e-01 sb=1.4e-07 sa=1.4e-07
MI6/avD2_4	I6/avC3#8	I6/avC5#6	VSS#167	VSS#3
+ nmos1v#20ivpcell#20gpdk045	L=4.5e-08	W=2.4e-07
+ AD=3.84e-14	AS=3.84e-14	PD=7.8e-07	PS=7.8e-07
+ scc=2.264554e-29 scb=8.389732e-15 sca=2.430001e-01 sb=3.45e-07 sa=1.4e-07
MI6/avD2_5	VSS#165	I6/avC5#5	I6/avC3#8	VSS#3
+ nmos1v#20ivpcell#20gpdk045	L=4.5e-08	W=2.4e-07
+ AD=3.36e-14	AS=3.36e-14	PD=7.8e-07	PS=7.8e-07
+ scc=4.386739e-29 scb=1.568716e-14 sca=2.528736e-01 sb=1.4e-07 sa=3.45e-07
MI6/avD2_6	I6/avC9#12	avC36#60	I6/avC3#9	VSS#3
+ nmos1v#20ivpcell#20gpdk045	L=4.5e-08	W=1.2e-07
+ AD=1.68e-14	AS=1.68e-14	PD=5.2e-07	PS=5.2e-07
+ scc=2.035760e-25 scb=7.650766e-13 sca=2.813804e-01 sb=1.4e-07 sa=1.4e-07
MI6/avD2_7	VSS#163	I6/avC6#2	I6/avC9#8	VSS#3
+ nmos1v#20ivpcell#20gpdk045	L=5.7e-07	W=1.2e-07
+ AD=1.68e-14	AS=1.68e-14	PD=5.2e-07	PS=5.2e-07
+ scc=7.192301e-18 scb=2.257152e-09 sca=3.746165e-01 sb=1.4e-07 sa=1.4e-07
MI6/avD2_8	I6/avC6#8	I6/avC9#6	VSS#161	VSS#3
+ nmos1v#20ivpcell#20gpdk045	L=4.5e-08	W=2.4e-07
+ AD=3.84e-14	AS=3.84e-14	PD=7.8e-07	PS=7.8e-07
+ scc=1.868418e-12 scb=1.585163e-06 sca=6.993123e-01 sb=3.45e-07 sa=1.4e-07
MI6/avD2_9	VSS#159	I6/avC9#5	I6/avC6#8	VSS#3
+ nmos1v#20ivpcell#20gpdk045	L=4.5e-08	W=2.4e-07
+ AD=3.36e-14	AS=3.36e-14	PD=7.8e-07	PS=7.8e-07
+ scc=9.579880e-11 scb=1.046524e-05 sca=9.046715e-01 sb=1.4e-07 sa=3.45e-07
MI6/avD2_10	y_out_b_2#6	I6/avC6#6	VSS#157	VSS#3
+ nmos1v#20ivpcell#20gpdk045	L=4.5e-08	W=2.4e-07
+ AD=3.36e-14	AS=3.36e-14	PD=7.6e-07	PS=7.6e-07
+ scc=6.275053e-07 scb=6.560697e-04 sca=2.222037e+00 sb=1.4e-07 sa=1.4e-07
MI6/avD2_11	y_out_2#3	y_out_b_2#4	VSS#131	VSS#3
+ nmos1v#20ivpcell#20gpdk045	L=4.5e-08	W=2.4e-07
+ AD=3.36e-14	AS=3.36e-14	PD=7.6e-07	PS=7.6e-07
+ scc=2.265936e-03 scb=2.276111e-02 sca=1.883856e+01 sb=1.4e-07 sa=1.4e-07
MI3/avD2_1	I3/avC5#12	avC35#4	x_in_2#3	VSS#3
+ nmos1v#20ivpcell#20gpdk045	L=4.5e-08	W=1.2e-07
+ AD=1.68e-14	AS=1.68e-14	PD=5.2e-07	PS=5.2e-07
+ scc=2.265936e-03 scb=2.276111e-02 sca=1.883640e+01 sb=1.4e-07 sa=1.4e-07
MI3/avD2_2	VSS#189	I3/avC3#2	I3/avC5#8	VSS#3
+ nmos1v#20ivpcell#20gpdk045	L=5.7e-07	W=1.2e-07
+ AD=1.68e-14	AS=1.68e-14	PD=5.2e-07	PS=5.2e-07
+ scc=8.718644e-08 scb=1.582741e-04 sca=1.348470e+00 sb=1.4e-07 sa=1.4e-07
MI3/avD2_3	VSS#187	avC32#4	I3/avC5#15	VSS#3
+ nmos1v#20ivpcell#20gpdk045	L=4.5e-08	W=1.2e-07
+ AD=1.68e-14	AS=1.68e-14	PD=5.2e-07	PS=5.2e-07
+ scc=3.832718e-15 scb=7.975347e-08 sca=5.134903e-01 sb=1.4e-07 sa=1.4e-07
MI3/avD2_4	I3/avC3#9	I3/avC5#6	VSS#185	VSS#3
+ nmos1v#20ivpcell#20gpdk045	L=4.5e-08	W=2.4e-07
+ AD=3.84e-14	AS=3.84e-14	PD=7.8e-07	PS=7.8e-07
+ scc=4.471498e-19 scb=9.729184e-10 sca=3.802787e-01 sb=3.45e-07 sa=1.4e-07
MI3/avD2_5	VSS#183	I3/avC5#5	I3/avC3#9	VSS#3
+ nmos1v#20ivpcell#20gpdk045	L=4.5e-08	W=2.4e-07
+ AD=3.36e-14	AS=3.36e-14	PD=7.8e-07	PS=7.8e-07
+ scc=8.117321e-21 scb=1.371925e-10 sca=3.443677e-01 sb=1.4e-07 sa=3.45e-07
MI3/avD2_6	I3/avC9#12	avC36#12	I3/avC3#10	VSS#3
+ nmos1v#20ivpcell#20gpdk045	L=4.5e-08	W=1.2e-07
+ AD=1.68e-14	AS=1.68e-14	PD=5.2e-07	PS=5.2e-07
+ scc=8.887085e-25 scb=1.574063e-12 sca=2.877954e-01 sb=1.4e-07 sa=1.4e-07
MI3/avD2_7	VSS#181	I3/avC6#2	I3/avC9#8	VSS#3
+ nmos1v#20ivpcell#20gpdk045	L=5.7e-07	W=1.2e-07
+ AD=1.68e-14	AS=1.68e-14	PD=5.2e-07	PS=5.2e-07
+ scc=1.653617e-29 scb=7.329339e-15 sca=2.383894e-01 sb=1.4e-07 sa=1.4e-07
MI3/avD2_8	I3/avC6#8	I3/avC9#6	VSS#179	VSS#3
+ nmos1v#20ivpcell#20gpdk045	L=4.5e-08	W=2.4e-07
+ AD=3.84e-14	AS=3.84e-14	PD=7.8e-07	PS=7.8e-07
+ scc=2.226569e-29 scb=7.235866e-15 sca=2.172121e-01 sb=3.45e-07 sa=1.4e-07
MI3/avD2_9	VSS#177	I3/avC9#5	I3/avC6#8	VSS#3
+ nmos1v#20ivpcell#20gpdk045	L=4.5e-08	W=2.4e-07
+ AD=3.36e-14	AS=3.36e-14	PD=7.8e-07	PS=7.8e-07
+ scc=2.226569e-29 scb=7.235391e-15 sca=2.125699e-01 sb=1.4e-07 sa=3.45e-07
MI3/avD2_10	x_out_b_2#6	I3/avC6#6	VSS#175	VSS#3
+ nmos1v#20ivpcell#20gpdk045	L=4.5e-08	W=2.4e-07
+ AD=3.36e-14	AS=3.36e-14	PD=7.6e-07	PS=7.6e-07
+ scc=2.226569e-29 scb=7.235318e-15 sca=2.040674e-01 sb=1.4e-07 sa=1.4e-07
MI3/avD2_11	x_out_2#3	x_out_b_2#4	VSS#173	VSS#3
+ nmos1v#20ivpcell#20gpdk045	L=4.5e-08	W=2.4e-07
+ AD=3.36e-14	AS=3.36e-14	PD=7.6e-07	PS=7.6e-07
+ scc=2.226569e-29 scb=7.235318e-15 sca=2.040674e-01 sb=1.4e-07 sa=1.4e-07
MI8/avD2_1	I8/avC5#12	avC35#40	y_in_0#5	VSS#3
+ nmos1v#20ivpcell#20gpdk045	L=4.5e-08	W=1.2e-07
+ AD=1.68e-14	AS=1.68e-14	PD=5.2e-07	PS=5.2e-07
+ scc=1.329271e-05 scb=2.531772e-03 sca=3.590571e+00 sb=1.4e-07 sa=1.4e-07
MI8/avD2_2	VSS#220	I8/avC3#2	I8/avC5#8	VSS#3
+ nmos1v#20ivpcell#20gpdk045	L=5.7e-07	W=1.2e-07
+ AD=1.68e-14	AS=1.68e-14	PD=5.2e-07	PS=5.2e-07
+ scc=1.329271e-05 scb=2.531772e-03 sca=3.591485e+00 sb=1.4e-07 sa=1.4e-07
MI8/avD2_3	VSS#219	avC32#36	I8/avC5#15	VSS#3
+ nmos1v#20ivpcell#20gpdk045	L=4.5e-08	W=1.2e-07
+ AD=1.68e-14	AS=1.68e-14	PD=5.2e-07	PS=5.2e-07
+ scc=1.329271e-05 scb=2.531772e-03 sca=3.612426e+00 sb=1.4e-07 sa=1.4e-07
MI8/avD2_4	I8/avC3#8	I8/avC5#6	VSS#218	VSS#3
+ nmos1v#20ivpcell#20gpdk045	L=4.5e-08	W=2.4e-07
+ AD=3.84e-14	AS=3.84e-14	PD=7.8e-07	PS=7.8e-07
+ scc=6.293884e-05 scb=4.514078e-03 sca=4.786017e+00 sb=3.45e-07 sa=1.4e-07
MI8/avD2_5	VSS#217	I8/avC5#5	I8/avC3#8	VSS#3
+ nmos1v#20ivpcell#20gpdk045	L=4.5e-08	W=2.4e-07
+ AD=3.36e-14	AS=3.36e-14	PD=7.8e-07	PS=7.8e-07
+ scc=6.293884e-05 scb=4.514078e-03 sca=4.795890e+00 sb=1.4e-07 sa=3.45e-07
MI8/avD2_6	I8/avC9#12	avC36#64	I8/avC3#9	VSS#3
+ nmos1v#20ivpcell#20gpdk045	L=4.5e-08	W=1.2e-07
+ AD=1.68e-14	AS=1.68e-14	PD=5.2e-07	PS=5.2e-07
+ scc=1.329271e-05 scb=2.531772e-03 sca=3.670046e+00 sb=1.4e-07 sa=1.4e-07
MI8/avD2_7	VSS#216	I8/avC6#2	I8/avC9#8	VSS#3
+ nmos1v#20ivpcell#20gpdk045	L=5.7e-07	W=1.2e-07
+ AD=1.68e-14	AS=1.68e-14	PD=5.2e-07	PS=5.2e-07
+ scc=1.329271e-05 scb=2.531775e-03 sca=3.763283e+00 sb=1.4e-07 sa=1.4e-07
MI8/avD2_8	I8/avC6#8	I8/avC9#6	VSS#215	VSS#3
+ nmos1v#20ivpcell#20gpdk045	L=4.5e-08	W=2.4e-07
+ AD=3.84e-14	AS=3.84e-14	PD=7.8e-07	PS=7.8e-07
+ scc=6.293884e-05 scb=4.515663e-03 sca=5.242329e+00 sb=3.45e-07 sa=1.4e-07
MI8/avD2_9	VSS#214	I8/avC9#5	I8/avC6#8	VSS#3
+ nmos1v#20ivpcell#20gpdk045	L=4.5e-08	W=2.4e-07
+ AD=3.36e-14	AS=3.36e-14	PD=7.8e-07	PS=7.8e-07
+ scc=6.293894e-05 scb=4.524543e-03 sca=5.447688e+00 sb=1.4e-07 sa=3.45e-07
MI8/avD2_10	y_out_b_0#6	I8/avC6#6	VSS#213	VSS#3
+ nmos1v#20ivpcell#20gpdk045	L=4.5e-08	W=2.4e-07
+ AD=3.36e-14	AS=3.36e-14	PD=7.6e-07	PS=7.6e-07
+ scc=6.356635e-05 scb=5.170147e-03 sca=6.765054e+00 sb=1.4e-07 sa=1.4e-07
MI8/avD2_11	y_out_0#3	y_out_b_0#4	VSS#190	VSS#3
+ nmos1v#20ivpcell#20gpdk045	L=4.5e-08	W=2.4e-07
+ AD=3.36e-14	AS=3.36e-14	PD=7.6e-07	PS=7.6e-07
+ scc=2.328875e-03 scb=2.727519e-02 sca=2.338158e+01 sb=1.4e-07 sa=1.4e-07
MI1/avD2_1	I1/avC5#12	avC35#8	x_in_0#3	VSS#3
+ nmos1v#20ivpcell#20gpdk045	L=4.5e-08	W=1.2e-07
+ AD=1.68e-14	AS=1.68e-14	PD=5.2e-07	PS=5.2e-07
+ scc=2.279229e-03 scb=2.529289e-02 sca=2.222506e+01 sb=1.4e-07 sa=1.4e-07
MI1/avD2_2	VSS#229	I1/avC3#2	I1/avC5#8	VSS#3
+ nmos1v#20ivpcell#20gpdk045	L=5.7e-07	W=1.2e-07
+ AD=1.68e-14	AS=1.68e-14	PD=5.2e-07	PS=5.2e-07
+ scc=1.337989e-05 scb=2.690046e-03 sca=4.737136e+00 sb=1.4e-07 sa=1.4e-07
MI1/avD2_3	VSS#228	avC32#8	I1/avC5#15	VSS#3
+ nmos1v#20ivpcell#20gpdk045	L=4.5e-08	W=1.2e-07
+ AD=1.68e-14	AS=1.68e-14	PD=5.2e-07	PS=5.2e-07
+ scc=1.329271e-05 scb=2.531852e-03 sca=3.902156e+00 sb=1.4e-07 sa=1.4e-07
MI1/avD2_4	I1/avC3#9	I1/avC5#6	VSS#227	VSS#3
+ nmos1v#20ivpcell#20gpdk045	L=4.5e-08	W=2.4e-07
+ AD=3.84e-14	AS=3.84e-14	PD=7.8e-07	PS=7.8e-07
+ scc=6.293884e-05 scb=4.514078e-03 sca=4.923295e+00 sb=3.45e-07 sa=1.4e-07
MI1/avD2_5	VSS#226	I1/avC5#5	I1/avC3#9	VSS#3
+ nmos1v#20ivpcell#20gpdk045	L=4.5e-08	W=2.4e-07
+ AD=3.36e-14	AS=3.36e-14	PD=7.8e-07	PS=7.8e-07
+ scc=6.293884e-05 scb=4.514078e-03 sca=4.887384e+00 sb=1.4e-07 sa=3.45e-07
MI1/avD2_6	I1/avC9#12	avC36#16	I1/avC3#10	VSS#3
+ nmos1v#20ivpcell#20gpdk045	L=4.5e-08	W=1.2e-07
+ AD=1.68e-14	AS=1.68e-14	PD=5.2e-07	PS=5.2e-07
+ scc=1.329271e-05 scb=2.531772e-03 sca=3.676461e+00 sb=1.4e-07 sa=1.4e-07
MI1/avD2_7	VSS#225	I1/avC6#2	I1/avC9#8	VSS#3
+ nmos1v#20ivpcell#20gpdk045	L=5.7e-07	W=1.2e-07
+ AD=1.68e-14	AS=1.68e-14	PD=5.2e-07	PS=5.2e-07
+ scc=1.329271e-05 scb=2.531772e-03 sca=3.627055e+00 sb=1.4e-07 sa=1.4e-07
MI1/avD2_8	I1/avC6#8	I1/avC9#6	VSS#224	VSS#3
+ nmos1v#20ivpcell#20gpdk045	L=4.5e-08	W=2.4e-07
+ AD=3.84e-14	AS=3.84e-14	PD=7.8e-07	PS=7.8e-07
+ scc=6.293884e-05 scb=4.514077e-03 sca=4.760229e+00 sb=3.45e-07 sa=1.4e-07
MI1/avD2_9	VSS#223	I1/avC9#5	I1/avC6#8	VSS#3
+ nmos1v#20ivpcell#20gpdk045	L=4.5e-08	W=2.4e-07
+ AD=3.36e-14	AS=3.36e-14	PD=7.8e-07	PS=7.8e-07
+ scc=6.293884e-05 scb=4.514077e-03 sca=4.755586e+00 sb=1.4e-07 sa=3.45e-07
MI1/avD2_10	x_out_b_0#6	I1/avC6#6	VSS#222	VSS#3
+ nmos1v#20ivpcell#20gpdk045	L=4.5e-08	W=2.4e-07
+ AD=3.36e-14	AS=3.36e-14	PD=7.6e-07	PS=7.6e-07
+ scc=6.293884e-05 scb=4.514077e-03 sca=4.747084e+00 sb=1.4e-07 sa=1.4e-07
MI1/avD2_11	x_out_0#3	x_out_b_0#4	VSS#221	VSS#3
+ nmos1v#20ivpcell#20gpdk045	L=4.5e-08	W=2.4e-07
+ AD=3.36e-14	AS=3.36e-14	PD=7.6e-07	PS=7.6e-07
+ scc=6.293884e-05 scb=4.514077e-03 sca=4.747084e+00 sb=1.4e-07 sa=1.4e-07
MavD2_1	clk_div4_out_b#2	avC33	VSS#13	VSS#3
+ nmos1v#20ivpcell#20gpdk045	L=4.5e-08	W=2.4e-07
+ AD=3.36e-14	AS=3.36e-14	PD=7.6e-07	PS=7.6e-07
+ scc=6.29388e-05 scb=0.00451408 sca=4.90025 sb=1.4e-07 sa=1.4e-07
MavD2_2	clk_div4_out#1	avC34	VSS#12	VSS#3	nmos1v#20ivpcell#20gpdk045
+ L=4.5e-08	W=2.4e-07
+ AD=3.36e-14	AS=3.36e-14	PD=7.6e-07	PS=7.6e-07
+ scc=6.29388e-05 scb=0.00451413 sca=5.04454 sb=1.4e-07 sa=1.4e-07
MI23/avD10_1	VDD#30	avC33#22	avC35#75	VDD#16
+ pmos1v#20ivpcell#20gpdk045	L=4.5e-08	W=4.8e-07
+ AD=7.68e-14	AS=7.68e-14	PD=1.28e-06	PS=1.28e-06
+ scc=2.114013e-03 scb=1.493815e-02 sca=1.885984e+01 sb=9.6e-07 sa=3.45e-07
MI23/avD10_2	avC35#78	avC33#20	VDD#30	VDD#16
+ pmos1v#20ivpcell#20gpdk045	L=4.5e-08	W=4.8e-07
+ AD=7.68e-14	AS=7.68e-14	PD=1.28e-06	PS=1.28e-06
+ scc=2.114050e-03 scb=1.508763e-02 sca=1.934994e+01 sb=7.55e-07 sa=5.5e-07
MI23/avD10_3	VDD#28	avC33#18	avC35#78	VDD#16
+ pmos1v#20ivpcell#20gpdk045	L=4.5e-08	W=4.8e-07
+ AD=7.68e-14	AS=7.68e-14	PD=1.28e-06	PS=1.28e-06
+ scc=2.115748e-03 scb=1.595694e-02 sca=2.038212e+01 sb=5.5e-07 sa=7.55e-07
MI23/avD10_4	avC35#81	avC33#16	VDD#28	VDD#16
+ pmos1v#20ivpcell#20gpdk045	L=4.5e-08	W=4.8e-07
+ AD=7.68e-14	AS=7.68e-14	PD=1.28e-06	PS=1.28e-06
+ scc=2.185157e-03 scb=2.044224e-02 sca=2.319504e+01 sb=3.45e-07 sa=9.6e-07
MI23/avD10_5	VDD#13	avC33#15	avC35#81	VDD#16
+ pmos1v#20ivpcell#20gpdk045	L=4.5e-08	W=4.8e-07
+ AD=6.72e-14	AS=6.72e-14	PD=1.26e-06	PS=1.26e-06
+ scc=4.379948e-03 scb=3.767080e-02 sca=3.663083e+01 sb=1.4e-07 sa=1.165e-06
MI23/avD10_6	avC35#75	avC33#14	VDD#32	VDD#16
+ pmos1v#20ivpcell#20gpdk045	L=4.5e-08	W=4.8e-07
+ AD=7.68e-14	AS=7.68e-14	PD=1.26e-06	PS=1.26e-06
+ scc=2.114013e-03 scb=1.491407e-02 sca=1.858929e+01 sb=1.165e-06 sa=1.4e-07
MI26/avD10_1	VDD#51	RST#40	avC31#51	VDD#16
+ pmos1v#20ivpcell#20gpdk045	L=4.5e-08	W=4.8e-07
+ AD=7.68e-14	AS=7.68e-14	PD=1.28e-06	PS=1.28e-06
+ scc=2.114013e-03 scb=1.490969e-02 sca=1.802338e+01 sb=9.6e-07 sa=3.45e-07
MI26/avD10_2	avC31#54	RST#38	VDD#51	VDD#16
+ pmos1v#20ivpcell#20gpdk045	L=4.5e-08	W=4.8e-07
+ AD=7.68e-14	AS=7.68e-14	PD=1.28e-06	PS=1.28e-06
+ scc=2.114013e-03 scb=1.490969e-02 sca=1.803105e+01 sb=7.55e-07 sa=5.5e-07
MI26/avD10_3	VDD#45	RST#36	avC31#54	VDD#16
+ pmos1v#20ivpcell#20gpdk045	L=4.5e-08	W=4.8e-07
+ AD=7.68e-14	AS=7.68e-14	PD=1.28e-06	PS=1.28e-06
+ scc=2.114013e-03 scb=1.490969e-02 sca=1.804011e+01 sb=5.5e-07 sa=7.55e-07
MI26/avD10_4	avC31#57	RST#34	VDD#45	VDD#16
+ pmos1v#20ivpcell#20gpdk045	L=4.5e-08	W=4.8e-07
+ AD=7.68e-14	AS=7.68e-14	PD=1.28e-06	PS=1.28e-06
+ scc=2.114013e-03 scb=1.490970e-02 sca=1.805094e+01 sb=3.45e-07 sa=9.6e-07
MI26/avD10_5	VDD#44	RST#33	avC31#57	VDD#16
+ pmos1v#20ivpcell#20gpdk045	L=4.5e-08	W=4.8e-07
+ AD=6.72e-14	AS=6.72e-14	PD=1.26e-06	PS=1.26e-06
+ scc=2.114013e-03 scb=1.490969e-02 sca=1.806403e+01 sb=1.4e-07 sa=1.165e-06
MI26/avD10_6	avC31#51	RST#32	VDD#52	VDD#16
+ pmos1v#20ivpcell#20gpdk045	L=4.5e-08	W=4.8e-07
+ AD=7.68e-14	AS=7.68e-14	PD=1.26e-06	PS=1.26e-06
+ scc=2.114013e-03 scb=1.490969e-02 sca=1.801685e+01 sb=1.165e-06 sa=1.4e-07
MI24/avD10_1	VDD#29	avC34#23	avC36#89	VDD#16
+ pmos1v#20ivpcell#20gpdk045	L=4.5e-08	W=4.8e-07
+ AD=7.68e-14	AS=7.68e-14	PD=1.28e-06	PS=1.28e-06
+ scc=2.114013e-03 scb=1.493815e-02 sca=1.885984e+01 sb=9.6e-07 sa=3.45e-07
MI24/avD10_2	avC36#92	avC34#21	VDD#29	VDD#16
+ pmos1v#20ivpcell#20gpdk045	L=4.5e-08	W=4.8e-07
+ AD=7.68e-14	AS=7.68e-14	PD=1.28e-06	PS=1.28e-06
+ scc=2.114050e-03 scb=1.508763e-02 sca=1.934994e+01 sb=7.55e-07 sa=5.5e-07
MI24/avD10_3	VDD#27	avC34#19	avC36#92	VDD#16
+ pmos1v#20ivpcell#20gpdk045	L=4.5e-08	W=4.8e-07
+ AD=7.68e-14	AS=7.68e-14	PD=1.28e-06	PS=1.28e-06
+ scc=2.115748e-03 scb=1.595694e-02 sca=2.038212e+01 sb=5.5e-07 sa=7.55e-07
MI24/avD10_4	avC36#95	avC34#17	VDD#27	VDD#16
+ pmos1v#20ivpcell#20gpdk045	L=4.5e-08	W=4.8e-07
+ AD=7.68e-14	AS=7.68e-14	PD=1.28e-06	PS=1.28e-06
+ scc=2.185157e-03 scb=2.044224e-02 sca=2.319504e+01 sb=3.45e-07 sa=9.6e-07
MI24/avD10_5	VDD#26	avC34#5	avC36#95	VDD#16
+ pmos1v#20ivpcell#20gpdk045	L=4.5e-08	W=4.8e-07
+ AD=6.72e-14	AS=6.72e-14	PD=1.26e-06	PS=1.26e-06
+ scc=4.379948e-03 scb=3.767080e-02 sca=3.663083e+01 sb=1.4e-07 sa=1.165e-06
MI24/avD10_6	avC36#89	avC34#24	VDD#31	VDD#16
+ pmos1v#20ivpcell#20gpdk045	L=4.5e-08	W=4.8e-07
+ AD=7.68e-14	AS=7.68e-14	PD=1.26e-06	PS=1.26e-06
+ scc=2.114013e-03 scb=1.491407e-02 sca=1.858929e+01 sb=1.165e-06 sa=1.4e-07
MI9/avD10_1	VDD#37	avC31#47	avC32#49	VDD#16
+ pmos1v#20ivpcell#20gpdk045	L=4.5e-08	W=4.8e-07
+ AD=7.68e-14	AS=7.68e-14	PD=1.28e-06	PS=1.28e-06
+ scc=2.114013e-03 scb=1.490969e-02 sca=1.811387e+01 sb=9.6e-07 sa=3.45e-07
MI9/avD10_2	avC32#52	avC31#45	VDD#37	VDD#16
+ pmos1v#20ivpcell#20gpdk045	L=4.5e-08	W=4.8e-07
+ AD=7.68e-14	AS=7.68e-14	PD=1.28e-06	PS=1.28e-06
+ scc=2.114013e-03 scb=1.490969e-02 sca=1.814291e+01 sb=7.55e-07 sa=5.5e-07
MI9/avD10_3	VDD#35	avC31#43	avC32#52	VDD#16
+ pmos1v#20ivpcell#20gpdk045	L=4.5e-08	W=4.8e-07
+ AD=7.68e-14	AS=7.68e-14	PD=1.28e-06	PS=1.28e-06
+ scc=2.114013e-03 scb=1.490969e-02 sca=1.818081e+01 sb=5.5e-07 sa=7.55e-07
MI9/avD10_4	avC32#55	avC31#41	VDD#35	VDD#16
+ pmos1v#20ivpcell#20gpdk045	L=4.5e-08	W=4.8e-07
+ AD=7.68e-14	AS=7.68e-14	PD=1.28e-06	PS=1.28e-06
+ scc=2.114013e-03 scb=1.490970e-02 sca=1.823157e+01 sb=3.45e-07 sa=9.6e-07
MI9/avD10_5	VDD#33	avC31#29	avC32#55	VDD#16
+ pmos1v#20ivpcell#20gpdk045	L=4.5e-08	W=4.8e-07
+ AD=6.72e-14	AS=6.72e-14	PD=1.26e-06	PS=1.26e-06
+ scc=2.114013e-03 scb=1.490976e-02 sca=1.830176e+01 sb=1.4e-07 sa=1.165e-06
MI9/avD10_6	avC32#49	avC31#48	VDD#38	VDD#16
+ pmos1v#20ivpcell#20gpdk045	L=4.5e-08	W=4.8e-07
+ AD=7.68e-14	AS=7.68e-14	PD=1.26e-06	PS=1.26e-06
+ scc=2.114013e-03 scb=1.490969e-02 sca=1.809113e+01 sb=1.165e-06 sa=1.4e-07
MI7/I1/avD10_1	I7/I1/avC5#12	CLK#5	I7/avC12#7	VDD#16
+ pmos1v#20ivpcell#20gpdk045	L=4.5e-08	W=1.2e-07
+ AD=1.68e-14	AS=1.68e-14	PD=5.2e-07	PS=5.2e-07
+ scc=1.954050e-05 scb=3.579814e-03 sca=6.652430e+00 sb=1.4e-07 sa=1.4e-07
MI7/I1/avD10_2	VDD#92	I7/I1/avC3#2	I7/I1/avC5#9	VDD#16
+ pmos1v#20ivpcell#20gpdk045	L=1.8e-07	W=1.2e-07
+ AD=1.68e-14	AS=1.68e-14	PD=5.2e-07	PS=5.2e-07
+ scc=7.077254e-03 scb=3.177220e-02 sca=4.663852e+01 sb=1.4e-07 sa=1.4e-07
MI7/I1/avD10_3	I7/I1/avC3#9	I7/I1/avC5#6	VDD#88	VDD#16
+ pmos1v#20ivpcell#20gpdk045	L=4.5e-08	W=4.8e-07
+ AD=7.68e-14	AS=7.68e-14	PD=1.26e-06	PS=1.26e-06
+ scc=2.114013e-03 scb=1.490969e-02 sca=1.810101e+01 sb=3.45e-07 sa=1.4e-07
MI7/I1/avD10_4	VDD#85	I7/I1/avC5#5	I7/I1/avC3#9	VDD#16
+ pmos1v#20ivpcell#20gpdk045	L=4.5e-08	W=4.8e-07
+ AD=6.72e-14	AS=6.72e-14	PD=1.26e-06	PS=1.26e-06
+ scc=2.114013e-03 scb=1.490969e-02 sca=1.808091e+01 sb=1.4e-07 sa=3.45e-07
MI7/I1/avD10_5	I7/I1/avC9#12	I7/avC6#4	I7/I1/avC3#11	VDD#16
+ pmos1v#20ivpcell#20gpdk045	L=4.5e-08	W=1.2e-07
+ AD=1.68e-14	AS=1.68e-14	PD=5.2e-07	PS=5.2e-07
+ scc=1.906559e-05 scb=3.002957e-03 sca=4.772319e+00 sb=1.4e-07 sa=1.4e-07
MI7/I1/avD10_6	VDD#82	I7/I1/avC6#2	I7/I1/avC9#9	VDD#16
+ pmos1v#20ivpcell#20gpdk045	L=1.8e-07	W=1.2e-07
+ AD=1.68e-14	AS=1.68e-14	PD=5.2e-07	PS=5.2e-07
+ scc=7.077254e-03 scb=3.176675e-02 sca=4.605801e+01 sb=1.4e-07 sa=1.4e-07
MI7/I1/avD10_7	I7/I1/avC9#15	I7/avC7	VDD#78	VDD#16
+ pmos1v#20ivpcell#20gpdk045	L=4.5e-08	W=1.2e-07
+ AD=1.68e-14	AS=1.68e-14	PD=5.2e-07	PS=5.2e-07
+ scc=7.077254e-03 scb=3.176675e-02 sca=4.604343e+01 sb=1.4e-07 sa=1.4e-07
MI7/I1/avD10_8	I7/I1/avC6#10	I7/I1/avC9#6	VDD#75	VDD#16
+ pmos1v#20ivpcell#20gpdk045	L=4.5e-08	W=4.8e-07
+ AD=7.68e-14	AS=7.68e-14	PD=1.26e-06	PS=1.26e-06
+ scc=2.114013e-03 scb=1.490969e-02 sca=1.799952e+01 sb=3.45e-07 sa=1.4e-07
MI7/I1/avD10_9	VDD#72	I7/I1/avC9#5	I7/I1/avC6#10	VDD#16
+ pmos1v#20ivpcell#20gpdk045	L=4.5e-08	W=4.8e-07
+ AD=6.72e-14	AS=6.72e-14	PD=1.26e-06	PS=1.26e-06
+ scc=2.114013e-03 scb=1.490969e-02 sca=1.799634e+01 sb=1.4e-07 sa=3.45e-07
MI7/I1/avD10_10	I7/avC12#28	I7/I1/avC6#6	VDD#69	VDD#16
+ pmos1v#20ivpcell#20gpdk045	L=4.5e-08	W=4.8e-07
+ AD=6.72e-14	AS=6.72e-14	PD=1.24e-06	PS=1.24e-06
+ scc=2.114013e-03 scb=1.490969e-02 sca=1.799634e+01 sb=1.4e-07 sa=1.4e-07
MI7/I1/avD10_11	I7/avC13#19	I7/avC12#17	VDD#66	VDD#16
+ pmos1v#20ivpcell#20gpdk045	L=4.5e-08	W=4.8e-07
+ AD=6.72e-14	AS=6.72e-14	PD=1.24e-06	PS=1.24e-06
+ scc=2.114013e-03 scb=1.490969e-02 sca=1.799634e+01 sb=1.4e-07 sa=1.4e-07
MI7/I2/avD10_1	I7/I2/avC5#13	I7/avC13#2	I7/avC11	VDD#16
+ pmos1v#20ivpcell#20gpdk045	L=4.5e-08	W=1.2e-07
+ AD=1.68e-14	AS=1.68e-14	PD=5.2e-07	PS=5.2e-07
+ scc=1.954050e-05 scb=3.579814e-03 sca=6.652430e+00 sb=1.4e-07 sa=1.4e-07
MI7/I2/avD10_2	VDD#87	I7/I2/avC3#3	I7/I2/avC5#9	VDD#16
+ pmos1v#20ivpcell#20gpdk045	L=1.8e-07	W=1.2e-07
+ AD=1.68e-14	AS=1.68e-14	PD=5.2e-07	PS=5.2e-07
+ scc=7.077254e-03 scb=3.177220e-02 sca=4.663852e+01 sb=1.4e-07 sa=1.4e-07
MI7/I2/avD10_3	I7/I2/avC3#11	I7/I2/avC5#7	VDD#84	VDD#16
+ pmos1v#20ivpcell#20gpdk045	L=4.5e-08	W=4.8e-07
+ AD=7.68e-14	AS=7.68e-14	PD=1.26e-06	PS=1.26e-06
+ scc=2.114013e-03 scb=1.490969e-02 sca=1.810101e+01 sb=3.45e-07 sa=1.4e-07
MI7/I2/avD10_4	VDD#81	I7/I2/avC5	I7/I2/avC3#11	VDD#16
+ pmos1v#20ivpcell#20gpdk045	L=4.5e-08	W=4.8e-07
+ AD=6.72e-14	AS=6.72e-14	PD=1.26e-06	PS=1.26e-06
+ scc=2.114013e-03 scb=1.490969e-02 sca=1.808091e+01 sb=1.4e-07 sa=3.45e-07
MI7/I2/avD10_5	I7/I2/avC9#13	I7/avC12#4	I7/I2/avC3#6	VDD#16
+ pmos1v#20ivpcell#20gpdk045	L=4.5e-08	W=1.2e-07
+ AD=1.68e-14	AS=1.68e-14	PD=5.2e-07	PS=5.2e-07
+ scc=1.906559e-05 scb=3.002957e-03 sca=4.772319e+00 sb=1.4e-07 sa=1.4e-07
MI7/I2/avD10_6	VDD#77	I7/I2/avC6#3	I7/I2/avC9#9	VDD#16
+ pmos1v#20ivpcell#20gpdk045	L=1.8e-07	W=1.2e-07
+ AD=1.68e-14	AS=1.68e-14	PD=5.2e-07	PS=5.2e-07
+ scc=7.077254e-03 scb=3.176675e-02 sca=4.605801e+01 sb=1.4e-07 sa=1.4e-07
MI7/I2/avD10_7	I7/I2/avC9#15	I7/avC7#3	VDD#74	VDD#16
+ pmos1v#20ivpcell#20gpdk045	L=4.5e-08	W=1.2e-07
+ AD=1.68e-14	AS=1.68e-14	PD=5.2e-07	PS=5.2e-07
+ scc=7.077254e-03 scb=3.176675e-02 sca=4.604343e+01 sb=1.4e-07 sa=1.4e-07
MI7/I2/avD10_8	I7/I2/avC6#10	I7/I2/avC9#7	VDD#71	VDD#16
+ pmos1v#20ivpcell#20gpdk045	L=4.5e-08	W=4.8e-07
+ AD=7.68e-14	AS=7.68e-14	PD=1.26e-06	PS=1.26e-06
+ scc=2.114013e-03 scb=1.490969e-02 sca=1.799952e+01 sb=3.45e-07 sa=1.4e-07
MI7/I2/avD10_9	VDD#68	I7/I2/avC9	I7/I2/avC6#10	VDD#16
+ pmos1v#20ivpcell#20gpdk045	L=4.5e-08	W=4.8e-07
+ AD=6.72e-14	AS=6.72e-14	PD=1.26e-06	PS=1.26e-06
+ scc=2.114013e-03 scb=1.490969e-02 sca=1.799634e+01 sb=1.4e-07 sa=3.45e-07
MI7/I2/avD10_10	I7/avC11#22	I7/I2/avC6#4	VDD#65	VDD#16
+ pmos1v#20ivpcell#20gpdk045	L=4.5e-08	W=4.8e-07
+ AD=6.72e-14	AS=6.72e-14	PD=1.24e-06	PS=1.24e-06
+ scc=2.114013e-03 scb=1.490969e-02 sca=1.799634e+01 sb=1.4e-07 sa=1.4e-07
MI7/I2/avD10_11	I7/avC14#10	I7/avC11#6	VDD#62	VDD#16
+ pmos1v#20ivpcell#20gpdk045	L=4.5e-08	W=4.8e-07
+ AD=6.72e-14	AS=6.72e-14	PD=1.24e-06	PS=1.24e-06
+ scc=2.114013e-03 scb=1.490969e-02 sca=1.799634e+01 sb=1.4e-07 sa=1.4e-07
MI7/I3/avD10_1	I7/avC5#8	I7/avC11#10	VSS#110	VDD#16
+ pmos1v#20ivpcell#20gpdk045	L=4.5e-08	W=2.4e-07
+ AD=3.84e-14	AS=3.84e-14	PD=7.8e-07	PS=7.8e-07
+ scc=0.00219428 scb=0.0196485 sca=18.5758 sb=3.45e-07 sa=1.4e-07
MI7/I3/avD10_2	VDD#55	I7/avC14#2	I7/avC5#8	VDD#16
+ pmos1v#20ivpcell#20gpdk045	L=4.5e-08	W=2.4e-07
+ AD=3.36e-14	AS=3.36e-14	PD=7.8e-07	PS=7.8e-07
+ scc=0.00219428 scb=0.0196485 sca=18.5793 sb=1.4e-07 sa=3.45e-07
MI7/I3/avD10_3	I7/avC4#9	I7/avC5#5	VDD#50	VDD#16
+ pmos1v#20ivpcell#20gpdk045	L=4.5e-08	W=4.8e-07
+ AD=6.72e-14	AS=6.72e-14	PD=1.24e-06	PS=1.24e-06
+ scc=0.00211401 scb=0.0149097 sca=18.0099 sb=1.4e-07 sa=1.4e-07
MI7/I3/avD10_4	VDD#47	I7/avC4#5	I7/avC5#16	VDD#16
+ pmos1v#20ivpcell#20gpdk045	L=4.5e-08	W=4.8e-07
+ AD=6.72e-14	AS=6.72e-14	PD=1.24e-06	PS=1.24e-06
+ scc=0.00211401 scb=0.0149097 sca=18.0234 sb=1.4e-07 sa=1.4e-07
MI7/I3/avD10_5	I7/avC4#16	I7/avC11#15	VDD#41	VDD#16
+ pmos1v#20ivpcell#20gpdk045	L=4.5e-08	W=2.4e-07
+ AD=3.84e-14	AS=3.84e-14	PD=7.8e-07	PS=7.8e-07
+ scc=0.00219428 scb=0.0196485 sca=18.622 sb=3.45e-07 sa=1.4e-07
MI7/I3/avD10_6	VSS#130	I7/avC14#6	I7/avC4#16	VDD#16
+ pmos1v#20ivpcell#20gpdk045	L=4.5e-08	W=2.4e-07
+ AD=3.36e-14	AS=3.36e-14	PD=7.8e-07	PS=7.8e-07
+ scc=0.00219428 scb=0.0196485 sca=18.6334 sb=1.4e-07 sa=3.45e-07
MI7/I10/avD10_1	avC33#25	I7/avC5#4	VDD#58	VDD#16
+ pmos1v#20ivpcell#20gpdk045	L=4.5e-08	W=4.8e-07
+ AD=6.72e-14	AS=6.72e-14	PD=1.24e-06	PS=1.24e-06
+ scc=2.114013e-03 scb=1.490969e-02 sca=1.800516e+01 sb=1.4e-07 sa=1.4e-07
MI7/I9/avD10_1	avC34#26	I7/avC4#4	VDD#63	VDD#16
+ pmos1v#20ivpcell#20gpdk045	L=4.5e-08	W=4.8e-07
+ AD=6.72e-14	AS=6.72e-14	PD=1.24e-06	PS=1.24e-06
+ scc=2.114013e-03 scb=1.490969e-02 sca=1.799658e+01 sb=1.4e-07 sa=1.4e-07
MI7/avD10_1	I7/avC7#5	RST#1	VDD#91	VDD#16
+ pmos1v#20ivpcell#20gpdk045	L=4.5e-08	W=2.4e-07
+ AD=3.36e-14	AS=3.36e-14	PD=7.6e-07	PS=7.6e-07
+ scc=0.00187781 scb=0.0261429 sca=22.378 sb=1.4e-07 sa=1.4e-07
MI7/avD10_2	I7/avC6#7	CLK#3	VDD#93	VDD#16
+ pmos1v#20ivpcell#20gpdk045	L=4.5e-08	W=2.4e-07
+ AD=3.36e-14	AS=3.36e-14	PD=7.6e-07	PS=7.6e-07
+ scc=0.00187781 scb=0.0261429 sca=22.378 sb=1.4e-07 sa=1.4e-07
MI4/avD10_1	I4/avC5#12	avC36#42	y_in_3#5	VDD#97
+ pmos1v#20ivpcell#20gpdk045	L=4.5e-08	W=1.2e-07
+ AD=1.68e-14	AS=1.68e-14	PD=5.2e-07	PS=5.2e-07
+ scc=1.906559e-05 scb=3.002957e-03 sca=4.720270e+00 sb=1.4e-07 sa=1.4e-07
MI4/avD10_2	VDD#130	I4/avC3#2	I4/avC5#9	VDD#97
+ pmos1v#20ivpcell#20gpdk045	L=1.8e-07	W=1.2e-07
+ AD=1.68e-14	AS=1.68e-14	PD=5.2e-07	PS=5.2e-07
+ scc=7.077254e-03 scb=3.176675e-02 sca=4.603072e+01 sb=1.4e-07 sa=1.4e-07
MI4/avD10_3	I4/avC3#8	I4/avC5#6	VDD#128	VDD#97
+ pmos1v#20ivpcell#20gpdk045	L=4.5e-08	W=4.8e-07
+ AD=7.68e-14	AS=7.68e-14	PD=1.26e-06	PS=1.26e-06
+ scc=2.114013e-03 scb=1.490969e-02 sca=1.803527e+01 sb=3.45e-07 sa=1.4e-07
MI4/avD10_4	VDD#126	I4/avC5#5	I4/avC3#8	VDD#97
+ pmos1v#20ivpcell#20gpdk045	L=4.5e-08	W=4.8e-07
+ AD=6.72e-14	AS=6.72e-14	PD=1.26e-06	PS=1.26e-06
+ scc=2.114013e-03 scb=1.490969e-02 sca=1.804515e+01 sb=1.4e-07 sa=3.45e-07
MI4/avD10_5	I4/avC9#12	avC35#50	I4/avC3#10	VDD#97
+ pmos1v#20ivpcell#20gpdk045	L=4.5e-08	W=1.2e-07
+ AD=1.68e-14	AS=1.68e-14	PD=5.2e-07	PS=5.2e-07
+ scc=1.906559e-05 scb=3.002957e-03 sca=4.799745e+00 sb=1.4e-07 sa=1.4e-07
MI4/avD10_6	VDD#124	I4/avC6#2	I4/avC9#9	VDD#97
+ pmos1v#20ivpcell#20gpdk045	L=1.8e-07	W=1.2e-07
+ AD=1.68e-14	AS=1.68e-14	PD=5.2e-07	PS=5.2e-07
+ scc=7.077254e-03 scb=3.176675e-02 sca=4.616902e+01 sb=1.4e-07 sa=1.4e-07
MI4/avD10_7	I4/avC9#15	avC31#21	VDD#122	VDD#97
+ pmos1v#20ivpcell#20gpdk045	L=4.5e-08	W=1.2e-07
+ AD=1.68e-14	AS=1.68e-14	PD=5.2e-07	PS=5.2e-07
+ scc=7.077254e-03 scb=3.176675e-02 sca=4.628885e+01 sb=1.4e-07 sa=1.4e-07
MI4/avD10_8	I4/avC6#10	I4/avC9#6	VDD#120	VDD#97
+ pmos1v#20ivpcell#20gpdk045	L=4.5e-08	W=4.8e-07
+ AD=7.68e-14	AS=7.68e-14	PD=1.26e-06	PS=1.26e-06
+ scc=2.114013e-03 scb=1.491127e-02 sca=1.849159e+01 sb=3.45e-07 sa=1.4e-07
MI4/avD10_9	VDD#118	I4/avC9#5	I4/avC6#10	VDD#97
+ pmos1v#20ivpcell#20gpdk045	L=4.5e-08	W=4.8e-07
+ AD=6.72e-14	AS=6.72e-14	PD=1.26e-06	PS=1.26e-06
+ scc=2.114013e-03 scb=1.492015e-02 sca=1.869695e+01 sb=1.4e-07 sa=3.45e-07
MI4/avD10_10	y_out_b_3#7	I4/avC6#6	VDD#116	VDD#97
+ pmos1v#20ivpcell#20gpdk045	L=4.5e-08	W=4.8e-07
+ AD=6.72e-14	AS=6.72e-14	PD=1.24e-06	PS=1.24e-06
+ scc=2.114640e-03 scb=1.556576e-02 sca=2.001431e+01 sb=1.4e-07 sa=1.4e-07
MI4/avD10_11	y_out_3#3	y_out_b_3#4	VDD#94	VDD#97
+ pmos1v#20ivpcell#20gpdk045	L=4.5e-08	W=4.8e-07
+ AD=6.72e-14	AS=6.72e-14	PD=1.24e-06	PS=1.24e-06
+ scc=4.379948e-03 scb=3.767080e-02 sca=3.663083e+01 sb=1.4e-07 sa=1.4e-07
MI5/avD10_1	I5/avC5#12	avC36#2	x_in_3#3	VDD#97
+ pmos1v#20ivpcell#20gpdk045	L=4.5e-08	W=1.2e-07
+ AD=1.68e-14	AS=1.68e-14	PD=5.2e-07	PS=5.2e-07
+ scc=2.285001e-03 scb=2.576407e-02 sca=2.335476e+01 sb=1.4e-07 sa=1.4e-07
MI5/avD10_2	VDD#153	I5/avC3#2	I5/avC5#9	VDD#97
+ pmos1v#20ivpcell#20gpdk045	L=1.8e-07	W=1.2e-07
+ AD=1.68e-14	AS=1.68e-14	PD=5.2e-07	PS=5.2e-07
+ scc=7.077521e-03 scb=3.216819e-02 sca=4.772270e+01 sb=1.4e-07 sa=1.4e-07
MI5/avD10_3	I5/avC3#9	I5/avC5#6	VDD#151	VDD#97
+ pmos1v#20ivpcell#20gpdk045	L=4.5e-08	W=4.8e-07
+ AD=7.68e-14	AS=7.68e-14	PD=1.26e-06	PS=1.26e-06
+ scc=2.114013e-03 scb=1.490969e-02 sca=1.817255e+01 sb=3.45e-07 sa=1.4e-07
MI5/avD10_4	VDD#147	I5/avC5#5	I5/avC3#9	VDD#97
+ pmos1v#20ivpcell#20gpdk045	L=4.5e-08	W=4.8e-07
+ AD=6.72e-14	AS=6.72e-14	PD=1.26e-06	PS=1.26e-06
+ scc=2.114013e-03 scb=1.490969e-02 sca=1.813664e+01 sb=1.4e-07 sa=3.45e-07
MI5/avD10_5	I5/avC9#12	avC35#10	I5/avC3#11	VDD#97
+ pmos1v#20ivpcell#20gpdk045	L=4.5e-08	W=1.2e-07
+ AD=1.68e-14	AS=1.68e-14	PD=5.2e-07	PS=5.2e-07
+ scc=1.906559e-05 scb=3.002957e-03 sca=4.806160e+00 sb=1.4e-07 sa=1.4e-07
MI5/avD10_6	VDD#144	I5/avC6#2	I5/avC9#9	VDD#97
+ pmos1v#20ivpcell#20gpdk045	L=1.8e-07	W=1.2e-07
+ AD=1.68e-14	AS=1.68e-14	PD=5.2e-07	PS=5.2e-07
+ scc=7.077254e-03 scb=3.176675e-02 sca=4.607888e+01 sb=1.4e-07 sa=1.4e-07
MI5/avD10_7	I5/avC9#15	avC31	VDD#140	VDD#97
+ pmos1v#20ivpcell#20gpdk045	L=4.5e-08	W=1.2e-07
+ AD=1.68e-14	AS=1.68e-14	PD=5.2e-07	PS=5.2e-07
+ scc=7.077254e-03 scb=3.176675e-02 sca=4.605718e+01 sb=1.4e-07 sa=1.4e-07
MI5/avD10_8	I5/avC6#10	I5/avC9#6	VDD#138	VDD#97
+ pmos1v#20ivpcell#20gpdk045	L=4.5e-08	W=4.8e-07
+ AD=7.68e-14	AS=7.68e-14	PD=1.26e-06	PS=1.26e-06
+ scc=2.114013e-03 scb=1.490969e-02 sca=1.800949e+01 sb=3.45e-07 sa=1.4e-07
MI5/avD10_9	VDD#136	I5/avC9#5	I5/avC6#10	VDD#97
+ pmos1v#20ivpcell#20gpdk045	L=4.5e-08	W=4.8e-07
+ AD=6.72e-14	AS=6.72e-14	PD=1.26e-06	PS=1.26e-06
+ scc=2.114013e-03 scb=1.490969e-02 sca=1.800484e+01 sb=1.4e-07 sa=3.45e-07
MI5/avD10_10	x_out_b_3#7	I5/avC6#6	VDD#134	VDD#97
+ pmos1v#20ivpcell#20gpdk045	L=4.5e-08	W=4.8e-07
+ AD=6.72e-14	AS=6.72e-14	PD=1.24e-06	PS=1.24e-06
+ scc=2.114013e-03 scb=1.490969e-02 sca=1.799634e+01 sb=1.4e-07 sa=1.4e-07
MI5/avD10_11	x_out_3#3	x_out_b_3#4	VDD#132	VDD#97
+ pmos1v#20ivpcell#20gpdk045	L=4.5e-08	W=4.8e-07
+ AD=6.72e-14	AS=6.72e-14	PD=1.24e-06	PS=1.24e-06
+ scc=2.114013e-03 scb=1.490969e-02 sca=1.799634e+01 sb=1.4e-07 sa=1.4e-07
MI2/avD10_1	I2/avC5#12	avC36#46	y_in_1#5	VDD#157
+ pmos1v#20ivpcell#20gpdk045	L=4.5e-08	W=1.2e-07
+ AD=1.68e-14	AS=1.68e-14	PD=5.2e-07	PS=5.2e-07
+ scc=1.906559e-05 scb=3.002957e-03 sca=4.720270e+00 sb=1.4e-07 sa=1.4e-07
MI2/avD10_2	VDD#190	I2/avC3#2	I2/avC5#9	VDD#157
+ pmos1v#20ivpcell#20gpdk045	L=1.8e-07	W=1.2e-07
+ AD=1.68e-14	AS=1.68e-14	PD=5.2e-07	PS=5.2e-07
+ scc=7.077254e-03 scb=3.176675e-02 sca=4.603072e+01 sb=1.4e-07 sa=1.4e-07
MI2/avD10_3	I2/avC3#8	I2/avC5#6	VDD#188	VDD#157
+ pmos1v#20ivpcell#20gpdk045	L=4.5e-08	W=4.8e-07
+ AD=7.68e-14	AS=7.68e-14	PD=1.26e-06	PS=1.26e-06
+ scc=2.114013e-03 scb=1.490969e-02 sca=1.803527e+01 sb=3.45e-07 sa=1.4e-07
MI2/avD10_4	VDD#186	I2/avC5#5	I2/avC3#8	VDD#157
+ pmos1v#20ivpcell#20gpdk045	L=4.5e-08	W=4.8e-07
+ AD=6.72e-14	AS=6.72e-14	PD=1.26e-06	PS=1.26e-06
+ scc=2.114013e-03 scb=1.490969e-02 sca=1.804515e+01 sb=1.4e-07 sa=3.45e-07
MI2/avD10_5	I2/avC9#12	avC35#54	I2/avC3#10	VDD#157
+ pmos1v#20ivpcell#20gpdk045	L=4.5e-08	W=1.2e-07
+ AD=1.68e-14	AS=1.68e-14	PD=5.2e-07	PS=5.2e-07
+ scc=1.906559e-05 scb=3.002957e-03 sca=4.799745e+00 sb=1.4e-07 sa=1.4e-07
MI2/avD10_6	VDD#184	I2/avC6#2	I2/avC9#9	VDD#157
+ pmos1v#20ivpcell#20gpdk045	L=1.8e-07	W=1.2e-07
+ AD=1.68e-14	AS=1.68e-14	PD=5.2e-07	PS=5.2e-07
+ scc=7.077254e-03 scb=3.176675e-02 sca=4.616902e+01 sb=1.4e-07 sa=1.4e-07
MI2/avD10_7	I2/avC9#15	avC31#25	VDD#182	VDD#157
+ pmos1v#20ivpcell#20gpdk045	L=4.5e-08	W=1.2e-07
+ AD=1.68e-14	AS=1.68e-14	PD=5.2e-07	PS=5.2e-07
+ scc=7.077254e-03 scb=3.176675e-02 sca=4.628885e+01 sb=1.4e-07 sa=1.4e-07
MI2/avD10_8	I2/avC6#10	I2/avC9#6	VDD#180	VDD#157
+ pmos1v#20ivpcell#20gpdk045	L=4.5e-08	W=4.8e-07
+ AD=7.68e-14	AS=7.68e-14	PD=1.26e-06	PS=1.26e-06
+ scc=2.114013e-03 scb=1.491127e-02 sca=1.849159e+01 sb=3.45e-07 sa=1.4e-07
MI2/avD10_9	VDD#178	I2/avC9#5	I2/avC6#10	VDD#157
+ pmos1v#20ivpcell#20gpdk045	L=4.5e-08	W=4.8e-07
+ AD=6.72e-14	AS=6.72e-14	PD=1.26e-06	PS=1.26e-06
+ scc=2.114013e-03 scb=1.492015e-02 sca=1.869695e+01 sb=1.4e-07 sa=3.45e-07
MI2/avD10_10	y_out_b_1#7	I2/avC6#6	VDD#176	VDD#157
+ pmos1v#20ivpcell#20gpdk045	L=4.5e-08	W=4.8e-07
+ AD=6.72e-14	AS=6.72e-14	PD=1.24e-06	PS=1.24e-06
+ scc=2.114640e-03 scb=1.556576e-02 sca=2.001431e+01 sb=1.4e-07 sa=1.4e-07
MI2/avD10_11	y_out_1#3	y_out_b_1#4	VDD#154	VDD#157
+ pmos1v#20ivpcell#20gpdk045	L=4.5e-08	W=4.8e-07
+ AD=6.72e-14	AS=6.72e-14	PD=1.24e-06	PS=1.24e-06
+ scc=4.379948e-03 scb=3.767080e-02 sca=3.663083e+01 sb=1.4e-07 sa=1.4e-07
MI0/avD10_1	I0/avC5#12	avC36#6	x_in_1#3	VDD#157
+ pmos1v#20ivpcell#20gpdk045	L=4.5e-08	W=1.2e-07
+ AD=1.68e-14	AS=1.68e-14	PD=5.2e-07	PS=5.2e-07
+ scc=2.285001e-03 scb=2.576407e-02 sca=2.335476e+01 sb=1.4e-07 sa=1.4e-07
MI0/avD10_2	VDD#213	I0/avC3#2	I0/avC5#9	VDD#157
+ pmos1v#20ivpcell#20gpdk045	L=1.8e-07	W=1.2e-07
+ AD=1.68e-14	AS=1.68e-14	PD=5.2e-07	PS=5.2e-07
+ scc=7.077521e-03 scb=3.216819e-02 sca=4.772270e+01 sb=1.4e-07 sa=1.4e-07
MI0/avD10_3	I0/avC3#9	I0/avC5#6	VDD#211	VDD#157
+ pmos1v#20ivpcell#20gpdk045	L=4.5e-08	W=4.8e-07
+ AD=7.68e-14	AS=7.68e-14	PD=1.26e-06	PS=1.26e-06
+ scc=2.114013e-03 scb=1.490969e-02 sca=1.817255e+01 sb=3.45e-07 sa=1.4e-07
MI0/avD10_4	VDD#207	I0/avC5#5	I0/avC3#9	VDD#157
+ pmos1v#20ivpcell#20gpdk045	L=4.5e-08	W=4.8e-07
+ AD=6.72e-14	AS=6.72e-14	PD=1.26e-06	PS=1.26e-06
+ scc=2.114013e-03 scb=1.490969e-02 sca=1.813664e+01 sb=1.4e-07 sa=3.45e-07
MI0/avD10_5	I0/avC9#12	avC35#14	I0/avC3#11	VDD#157
+ pmos1v#20ivpcell#20gpdk045	L=4.5e-08	W=1.2e-07
+ AD=1.68e-14	AS=1.68e-14	PD=5.2e-07	PS=5.2e-07
+ scc=1.906559e-05 scb=3.002957e-03 sca=4.806160e+00 sb=1.4e-07 sa=1.4e-07
MI0/avD10_6	VDD#204	I0/avC6#2	I0/avC9#9	VDD#157
+ pmos1v#20ivpcell#20gpdk045	L=1.8e-07	W=1.2e-07
+ AD=1.68e-14	AS=1.68e-14	PD=5.2e-07	PS=5.2e-07
+ scc=7.077254e-03 scb=3.176675e-02 sca=4.607888e+01 sb=1.4e-07 sa=1.4e-07
MI0/avD10_7	I0/avC9#15	avC31#5	VDD#200	VDD#157
+ pmos1v#20ivpcell#20gpdk045	L=4.5e-08	W=1.2e-07
+ AD=1.68e-14	AS=1.68e-14	PD=5.2e-07	PS=5.2e-07
+ scc=7.077254e-03 scb=3.176675e-02 sca=4.605718e+01 sb=1.4e-07 sa=1.4e-07
MI0/avD10_8	I0/avC6#10	I0/avC9#6	VDD#198	VDD#157
+ pmos1v#20ivpcell#20gpdk045	L=4.5e-08	W=4.8e-07
+ AD=7.68e-14	AS=7.68e-14	PD=1.26e-06	PS=1.26e-06
+ scc=2.114013e-03 scb=1.490969e-02 sca=1.800949e+01 sb=3.45e-07 sa=1.4e-07
MI0/avD10_9	VDD#196	I0/avC9#5	I0/avC6#10	VDD#157
+ pmos1v#20ivpcell#20gpdk045	L=4.5e-08	W=4.8e-07
+ AD=6.72e-14	AS=6.72e-14	PD=1.26e-06	PS=1.26e-06
+ scc=2.114013e-03 scb=1.490969e-02 sca=1.800484e+01 sb=1.4e-07 sa=3.45e-07
MI0/avD10_10	x_out_b_1#7	I0/avC6#6	VDD#194	VDD#157
+ pmos1v#20ivpcell#20gpdk045	L=4.5e-08	W=4.8e-07
+ AD=6.72e-14	AS=6.72e-14	PD=1.24e-06	PS=1.24e-06
+ scc=2.114013e-03 scb=1.490969e-02 sca=1.799634e+01 sb=1.4e-07 sa=1.4e-07
MI0/avD10_11	x_out_1#3	x_out_b_1#4	VDD#192	VDD#157
+ pmos1v#20ivpcell#20gpdk045	L=4.5e-08	W=4.8e-07
+ AD=6.72e-14	AS=6.72e-14	PD=1.24e-06	PS=1.24e-06
+ scc=2.114013e-03 scb=1.490969e-02 sca=1.799634e+01 sb=1.4e-07 sa=1.4e-07
MI6/avD10_1	I6/avC5#13	avC36#44	y_in_2#3	VDD#97
+ pmos1v#20ivpcell#20gpdk045	L=4.5e-08	W=1.2e-07
+ AD=1.68e-14	AS=1.68e-14	PD=5.2e-07	PS=5.2e-07
+ scc=1.906559e-05 scb=3.002957e-03 sca=4.720270e+00 sb=1.4e-07 sa=1.4e-07
MI6/avD10_2	VDD#129	I6/avC3#3	I6/avC5#9	VDD#97
+ pmos1v#20ivpcell#20gpdk045	L=1.8e-07	W=1.2e-07
+ AD=1.68e-14	AS=1.68e-14	PD=5.2e-07	PS=5.2e-07
+ scc=7.077254e-03 scb=3.176675e-02 sca=4.603072e+01 sb=1.4e-07 sa=1.4e-07
MI6/avD10_3	I6/avC3#10	I6/avC5#7	VDD#127	VDD#97
+ pmos1v#20ivpcell#20gpdk045	L=4.5e-08	W=4.8e-07
+ AD=7.68e-14	AS=7.68e-14	PD=1.26e-06	PS=1.26e-06
+ scc=2.114013e-03 scb=1.490969e-02 sca=1.803527e+01 sb=3.45e-07 sa=1.4e-07
MI6/avD10_4	VDD#125	I6/avC5	I6/avC3#10	VDD#97
+ pmos1v#20ivpcell#20gpdk045	L=4.5e-08	W=4.8e-07
+ AD=6.72e-14	AS=6.72e-14	PD=1.26e-06	PS=1.26e-06
+ scc=2.114013e-03 scb=1.490969e-02 sca=1.804515e+01 sb=1.4e-07 sa=3.45e-07
MI6/avD10_5	I6/avC9#13	avC35#52	I6/avC3#5	VDD#97
+ pmos1v#20ivpcell#20gpdk045	L=4.5e-08	W=1.2e-07
+ AD=1.68e-14	AS=1.68e-14	PD=5.2e-07	PS=5.2e-07
+ scc=1.906559e-05 scb=3.002957e-03 sca=4.799745e+00 sb=1.4e-07 sa=1.4e-07
MI6/avD10_6	VDD#123	I6/avC6#3	I6/avC9#9	VDD#97
+ pmos1v#20ivpcell#20gpdk045	L=1.8e-07	W=1.2e-07
+ AD=1.68e-14	AS=1.68e-14	PD=5.2e-07	PS=5.2e-07
+ scc=7.077254e-03 scb=3.176675e-02 sca=4.616902e+01 sb=1.4e-07 sa=1.4e-07
MI6/avD10_7	I6/avC9#15	avC31#23	VDD#121	VDD#97
+ pmos1v#20ivpcell#20gpdk045	L=4.5e-08	W=1.2e-07
+ AD=1.68e-14	AS=1.68e-14	PD=5.2e-07	PS=5.2e-07
+ scc=7.077254e-03 scb=3.176675e-02 sca=4.628885e+01 sb=1.4e-07 sa=1.4e-07
MI6/avD10_8	I6/avC6#10	I6/avC9#7	VDD#119	VDD#97
+ pmos1v#20ivpcell#20gpdk045	L=4.5e-08	W=4.8e-07
+ AD=7.68e-14	AS=7.68e-14	PD=1.26e-06	PS=1.26e-06
+ scc=2.114013e-03 scb=1.491127e-02 sca=1.849159e+01 sb=3.45e-07 sa=1.4e-07
MI6/avD10_9	VDD#117	I6/avC9	I6/avC6#10	VDD#97
+ pmos1v#20ivpcell#20gpdk045	L=4.5e-08	W=4.8e-07
+ AD=6.72e-14	AS=6.72e-14	PD=1.26e-06	PS=1.26e-06
+ scc=2.114013e-03 scb=1.492015e-02 sca=1.869695e+01 sb=1.4e-07 sa=3.45e-07
MI6/avD10_10	y_out_b_2#8	I6/avC6#4	VDD#115	VDD#97
+ pmos1v#20ivpcell#20gpdk045	L=4.5e-08	W=4.8e-07
+ AD=6.72e-14	AS=6.72e-14	PD=1.24e-06	PS=1.24e-06
+ scc=2.114640e-03 scb=1.556576e-02 sca=2.001431e+01 sb=1.4e-07 sa=1.4e-07
MI6/avD10_11	y_out_2#1	y_out_b_2#1	VDD#114	VDD#97
+ pmos1v#20ivpcell#20gpdk045	L=4.5e-08	W=4.8e-07
+ AD=6.72e-14	AS=6.72e-14	PD=1.24e-06	PS=1.24e-06
+ scc=4.379948e-03 scb=3.767080e-02 sca=3.663083e+01 sb=1.4e-07 sa=1.4e-07
MI3/avD10_1	I3/avC5#13	avC36#4	x_in_2#1	VDD#97
+ pmos1v#20ivpcell#20gpdk045	L=4.5e-08	W=1.2e-07
+ AD=1.68e-14	AS=1.68e-14	PD=5.2e-07	PS=5.2e-07
+ scc=2.285001e-03 scb=2.576407e-02 sca=2.335476e+01 sb=1.4e-07 sa=1.4e-07
MI3/avD10_2	VDD#150	I3/avC3#3	I3/avC5#9	VDD#97
+ pmos1v#20ivpcell#20gpdk045	L=1.8e-07	W=1.2e-07
+ AD=1.68e-14	AS=1.68e-14	PD=5.2e-07	PS=5.2e-07
+ scc=7.077521e-03 scb=3.216819e-02 sca=4.772270e+01 sb=1.4e-07 sa=1.4e-07
MI3/avD10_3	I3/avC3#11	I3/avC5#7	VDD#146	VDD#97
+ pmos1v#20ivpcell#20gpdk045	L=4.5e-08	W=4.8e-07
+ AD=7.68e-14	AS=7.68e-14	PD=1.26e-06	PS=1.26e-06
+ scc=2.114013e-03 scb=1.490969e-02 sca=1.817255e+01 sb=3.45e-07 sa=1.4e-07
MI3/avD10_4	VDD#143	I3/avC5	I3/avC3#11	VDD#97
+ pmos1v#20ivpcell#20gpdk045	L=4.5e-08	W=4.8e-07
+ AD=6.72e-14	AS=6.72e-14	PD=1.26e-06	PS=1.26e-06
+ scc=2.114013e-03 scb=1.490969e-02 sca=1.813664e+01 sb=1.4e-07 sa=3.45e-07
MI3/avD10_5	I3/avC9#13	avC35#12	I3/avC3#6	VDD#97
+ pmos1v#20ivpcell#20gpdk045	L=4.5e-08	W=1.2e-07
+ AD=1.68e-14	AS=1.68e-14	PD=5.2e-07	PS=5.2e-07
+ scc=1.906559e-05 scb=3.002957e-03 sca=4.806160e+00 sb=1.4e-07 sa=1.4e-07
MI3/avD10_6	VDD#141	I3/avC6#3	I3/avC9#9	VDD#97
+ pmos1v#20ivpcell#20gpdk045	L=1.8e-07	W=1.2e-07
+ AD=1.68e-14	AS=1.68e-14	PD=5.2e-07	PS=5.2e-07
+ scc=7.077254e-03 scb=3.176675e-02 sca=4.607888e+01 sb=1.4e-07 sa=1.4e-07
MI3/avD10_7	I3/avC9#15	avC31#3	VDD#139	VDD#97
+ pmos1v#20ivpcell#20gpdk045	L=4.5e-08	W=1.2e-07
+ AD=1.68e-14	AS=1.68e-14	PD=5.2e-07	PS=5.2e-07
+ scc=7.077254e-03 scb=3.176675e-02 sca=4.605718e+01 sb=1.4e-07 sa=1.4e-07
MI3/avD10_8	I3/avC6#10	I3/avC9#7	VDD#137	VDD#97
+ pmos1v#20ivpcell#20gpdk045	L=4.5e-08	W=4.8e-07
+ AD=7.68e-14	AS=7.68e-14	PD=1.26e-06	PS=1.26e-06
+ scc=2.114013e-03 scb=1.490969e-02 sca=1.800949e+01 sb=3.45e-07 sa=1.4e-07
MI3/avD10_9	VDD#135	I3/avC9	I3/avC6#10	VDD#97
+ pmos1v#20ivpcell#20gpdk045	L=4.5e-08	W=4.8e-07
+ AD=6.72e-14	AS=6.72e-14	PD=1.26e-06	PS=1.26e-06
+ scc=2.114013e-03 scb=1.490969e-02 sca=1.800484e+01 sb=1.4e-07 sa=3.45e-07
MI3/avD10_10	x_out_b_2#8	I3/avC6#4	VDD#133	VDD#97
+ pmos1v#20ivpcell#20gpdk045	L=4.5e-08	W=4.8e-07
+ AD=6.72e-14	AS=6.72e-14	PD=1.24e-06	PS=1.24e-06
+ scc=2.114013e-03 scb=1.490969e-02 sca=1.799634e+01 sb=1.4e-07 sa=1.4e-07
MI3/avD10_11	x_out_2#1	x_out_b_2#1	VDD#131	VDD#97
+ pmos1v#20ivpcell#20gpdk045	L=4.5e-08	W=4.8e-07
+ AD=6.72e-14	AS=6.72e-14	PD=1.24e-06	PS=1.24e-06
+ scc=2.114013e-03 scb=1.490969e-02 sca=1.799634e+01 sb=1.4e-07 sa=1.4e-07
MI8/avD10_1	I8/avC5#13	avC36#48	y_in_0#3	VDD#157
+ pmos1v#20ivpcell#20gpdk045	L=4.5e-08	W=1.2e-07
+ AD=1.68e-14	AS=1.68e-14	PD=5.2e-07	PS=5.2e-07
+ scc=1.906559e-05 scb=3.002957e-03 sca=4.720270e+00 sb=1.4e-07 sa=1.4e-07
MI8/avD10_2	VDD#189	I8/avC3#3	I8/avC5#9	VDD#157
+ pmos1v#20ivpcell#20gpdk045	L=1.8e-07	W=1.2e-07
+ AD=1.68e-14	AS=1.68e-14	PD=5.2e-07	PS=5.2e-07
+ scc=7.077254e-03 scb=3.176675e-02 sca=4.603072e+01 sb=1.4e-07 sa=1.4e-07
MI8/avD10_3	I8/avC3#10	I8/avC5#7	VDD#187	VDD#157
+ pmos1v#20ivpcell#20gpdk045	L=4.5e-08	W=4.8e-07
+ AD=7.68e-14	AS=7.68e-14	PD=1.26e-06	PS=1.26e-06
+ scc=2.114013e-03 scb=1.490969e-02 sca=1.803527e+01 sb=3.45e-07 sa=1.4e-07
MI8/avD10_4	VDD#185	I8/avC5	I8/avC3#10	VDD#157
+ pmos1v#20ivpcell#20gpdk045	L=4.5e-08	W=4.8e-07
+ AD=6.72e-14	AS=6.72e-14	PD=1.26e-06	PS=1.26e-06
+ scc=2.114013e-03 scb=1.490969e-02 sca=1.804515e+01 sb=1.4e-07 sa=3.45e-07
MI8/avD10_5	I8/avC9#13	avC35#56	I8/avC3#5	VDD#157
+ pmos1v#20ivpcell#20gpdk045	L=4.5e-08	W=1.2e-07
+ AD=1.68e-14	AS=1.68e-14	PD=5.2e-07	PS=5.2e-07
+ scc=1.906559e-05 scb=3.002957e-03 sca=4.799745e+00 sb=1.4e-07 sa=1.4e-07
MI8/avD10_6	VDD#183	I8/avC6#3	I8/avC9#9	VDD#157
+ pmos1v#20ivpcell#20gpdk045	L=1.8e-07	W=1.2e-07
+ AD=1.68e-14	AS=1.68e-14	PD=5.2e-07	PS=5.2e-07
+ scc=7.077254e-03 scb=3.176675e-02 sca=4.616902e+01 sb=1.4e-07 sa=1.4e-07
MI8/avD10_7	I8/avC9#15	avC31#27	VDD#181	VDD#157
+ pmos1v#20ivpcell#20gpdk045	L=4.5e-08	W=1.2e-07
+ AD=1.68e-14	AS=1.68e-14	PD=5.2e-07	PS=5.2e-07
+ scc=7.077254e-03 scb=3.176675e-02 sca=4.628885e+01 sb=1.4e-07 sa=1.4e-07
MI8/avD10_8	I8/avC6#10	I8/avC9#7	VDD#179	VDD#157
+ pmos1v#20ivpcell#20gpdk045	L=4.5e-08	W=4.8e-07
+ AD=7.68e-14	AS=7.68e-14	PD=1.26e-06	PS=1.26e-06
+ scc=2.114013e-03 scb=1.491127e-02 sca=1.849159e+01 sb=3.45e-07 sa=1.4e-07
MI8/avD10_9	VDD#177	I8/avC9	I8/avC6#10	VDD#157
+ pmos1v#20ivpcell#20gpdk045	L=4.5e-08	W=4.8e-07
+ AD=6.72e-14	AS=6.72e-14	PD=1.26e-06	PS=1.26e-06
+ scc=2.114013e-03 scb=1.492015e-02 sca=1.869695e+01 sb=1.4e-07 sa=3.45e-07
MI8/avD10_10	y_out_b_0#8	I8/avC6#4	VDD#175	VDD#157
+ pmos1v#20ivpcell#20gpdk045	L=4.5e-08	W=4.8e-07
+ AD=6.72e-14	AS=6.72e-14	PD=1.24e-06	PS=1.24e-06
+ scc=2.114640e-03 scb=1.556576e-02 sca=2.001431e+01 sb=1.4e-07 sa=1.4e-07
MI8/avD10_11	y_out_0#1	y_out_b_0#1	VDD#174	VDD#157
+ pmos1v#20ivpcell#20gpdk045	L=4.5e-08	W=4.8e-07
+ AD=6.72e-14	AS=6.72e-14	PD=1.24e-06	PS=1.24e-06
+ scc=4.379948e-03 scb=3.767080e-02 sca=3.663083e+01 sb=1.4e-07 sa=1.4e-07
MI1/avD10_1	I1/avC5#13	avC36#8	x_in_0#1	VDD#157
+ pmos1v#20ivpcell#20gpdk045	L=4.5e-08	W=1.2e-07
+ AD=1.68e-14	AS=1.68e-14	PD=5.2e-07	PS=5.2e-07
+ scc=2.285001e-03 scb=2.576407e-02 sca=2.335476e+01 sb=1.4e-07 sa=1.4e-07
MI1/avD10_2	VDD#210	I1/avC3#3	I1/avC5#9	VDD#157
+ pmos1v#20ivpcell#20gpdk045	L=1.8e-07	W=1.2e-07
+ AD=1.68e-14	AS=1.68e-14	PD=5.2e-07	PS=5.2e-07
+ scc=7.077521e-03 scb=3.216819e-02 sca=4.772270e+01 sb=1.4e-07 sa=1.4e-07
MI1/avD10_3	I1/avC3#11	I1/avC5#7	VDD#206	VDD#157
+ pmos1v#20ivpcell#20gpdk045	L=4.5e-08	W=4.8e-07
+ AD=7.68e-14	AS=7.68e-14	PD=1.26e-06	PS=1.26e-06
+ scc=2.114013e-03 scb=1.490969e-02 sca=1.817255e+01 sb=3.45e-07 sa=1.4e-07
MI1/avD10_4	VDD#203	I1/avC5	I1/avC3#11	VDD#157
+ pmos1v#20ivpcell#20gpdk045	L=4.5e-08	W=4.8e-07
+ AD=6.72e-14	AS=6.72e-14	PD=1.26e-06	PS=1.26e-06
+ scc=2.114013e-03 scb=1.490969e-02 sca=1.813664e+01 sb=1.4e-07 sa=3.45e-07
MI1/avD10_5	I1/avC9#13	avC35#16	I1/avC3#6	VDD#157
+ pmos1v#20ivpcell#20gpdk045	L=4.5e-08	W=1.2e-07
+ AD=1.68e-14	AS=1.68e-14	PD=5.2e-07	PS=5.2e-07
+ scc=1.906559e-05 scb=3.002957e-03 sca=4.806160e+00 sb=1.4e-07 sa=1.4e-07
MI1/avD10_6	VDD#201	I1/avC6#3	I1/avC9#9	VDD#157
+ pmos1v#20ivpcell#20gpdk045	L=1.8e-07	W=1.2e-07
+ AD=1.68e-14	AS=1.68e-14	PD=5.2e-07	PS=5.2e-07
+ scc=7.077254e-03 scb=3.176675e-02 sca=4.607888e+01 sb=1.4e-07 sa=1.4e-07
MI1/avD10_7	I1/avC9#15	avC31#7	VDD#199	VDD#157
+ pmos1v#20ivpcell#20gpdk045	L=4.5e-08	W=1.2e-07
+ AD=1.68e-14	AS=1.68e-14	PD=5.2e-07	PS=5.2e-07
+ scc=7.077254e-03 scb=3.176675e-02 sca=4.605718e+01 sb=1.4e-07 sa=1.4e-07
MI1/avD10_8	I1/avC6#10	I1/avC9#7	VDD#197	VDD#157
+ pmos1v#20ivpcell#20gpdk045	L=4.5e-08	W=4.8e-07
+ AD=7.68e-14	AS=7.68e-14	PD=1.26e-06	PS=1.26e-06
+ scc=2.114013e-03 scb=1.490969e-02 sca=1.800949e+01 sb=3.45e-07 sa=1.4e-07
MI1/avD10_9	VDD#195	I1/avC9	I1/avC6#10	VDD#157
+ pmos1v#20ivpcell#20gpdk045	L=4.5e-08	W=4.8e-07
+ AD=6.72e-14	AS=6.72e-14	PD=1.26e-06	PS=1.26e-06
+ scc=2.114013e-03 scb=1.490969e-02 sca=1.800484e+01 sb=1.4e-07 sa=3.45e-07
MI1/avD10_10	x_out_b_0#8	I1/avC6#4	VDD#193	VDD#157
+ pmos1v#20ivpcell#20gpdk045	L=4.5e-08	W=4.8e-07
+ AD=6.72e-14	AS=6.72e-14	PD=1.24e-06	PS=1.24e-06
+ scc=2.114013e-03 scb=1.490969e-02 sca=1.799634e+01 sb=1.4e-07 sa=1.4e-07
MI1/avD10_11	x_out_0#1	x_out_b_0#1	VDD#191	VDD#157
+ pmos1v#20ivpcell#20gpdk045	L=4.5e-08	W=4.8e-07
+ AD=6.72e-14	AS=6.72e-14	PD=1.24e-06	PS=1.24e-06
+ scc=2.114013e-03 scb=1.490969e-02 sca=1.799634e+01 sb=1.4e-07 sa=1.4e-07
MI17/avD10_1	clk_div4_out#2	avC34#4	VDD#34	VDD#16
+ pmos1v#20ivpcell#20gpdk045	L=4.5e-08	W=4.8e-07
+ AD=6.72e-14	AS=6.72e-14	PD=1.24e-06	PS=1.24e-06
+ scc=2.114013e-03 scb=1.490974e-02 sca=1.829380e+01 sb=1.4e-07 sa=1.4e-07
MI18/avD10_1	clk_div4_out_b#1	avC33#4	VDD#36	VDD#16
+ pmos1v#20ivpcell#20gpdk045	L=4.5e-08	W=4.8e-07
+ AD=6.72e-14	AS=6.72e-14	PD=1.24e-06	PS=1.24e-06
+ scc=2.114013e-03 scb=1.490969e-02 sca=1.814951e+01 sb=1.4e-07 sa=1.4e-07
*
*
*       RESISTOR AND CAP/DIODE CARDS
*
Rd2	VDD	VDD#222	    0.1224	$X=8.43 $Y=3.07
Rd3	VDD	VDD#220	    0.1224	$X=8.43 $Y=5.99
Rd4	VSS	VSS#252	6.119e-02	$X=12.99 $Y=3.877
Rd5	VSS#252	VSS#253	    0.1224	$X=12.99 $Y=1.61
Rd6	VSS	VSS#251	6.119e-02	$X=12.99 $Y=5.183
Rd7	VSS#251	VSS#250	    0.1224	$X=12.99 $Y=7.45
Re1	VDD#220	VDD#217	8.333e-02	$X=8.43 $Y=7.45
Re2	VDD#218	VDD	8.333e-02	$X=8.43 $Y=4.53
Re3	VDD#222	VDD#219	8.333e-02	$X=8.43 $Y=1.61
Re4	VSS#250	VSS#246	8.333e-02	$X=12.99 $Y=8.91
Re5	VSS#247	VSS#251	8.333e-02	$X=12.99 $Y=5.99
Re6	VSS#252	VSS#248	8.333e-02	$X=12.99 $Y=3.07
Re7	VSS#249	VSS#253	8.333e-02	$X=12.99 $Y=0.15
Rf1	VDD#217	VDD#214	8.333e-02	$X=8.43 $Y=7.45
Rf2	VDD#215	VDD#218	8.333e-02	$X=8.43 $Y=4.53
Rf3	VDD#219	VDD#216	8.333e-02	$X=8.43 $Y=1.61
Rf4	VSS#246	VSS#242	8.333e-02	$X=12.99 $Y=8.91
Rf5	VSS#243	VSS#247	8.333e-02	$X=12.99 $Y=5.99
Rf6	VSS#248	VSS#244	8.333e-02	$X=12.99 $Y=3.07
Rf7	VSS#245	VSS#249	8.333e-02	$X=12.99 $Y=0.15
Rg1	VDD#214	VDD#10	8.333e-02	$X=8.43 $Y=7.45
Rg2	VDD#11	VDD#215	8.333e-02	$X=8.43 $Y=4.53
Rg3	VDD#216	VDD#12	8.333e-02	$X=8.43 $Y=1.61
Rg4	VSS#242	VSS#238	8.333e-02	$X=12.99 $Y=8.91
Rg5	VSS#239	VSS#243	8.333e-02	$X=12.99 $Y=5.99
Rg6	VSS#244	VSS#240	8.333e-02	$X=12.99 $Y=3.07
Rg7	VSS#241	VSS#245	8.333e-02	$X=12.99 $Y=0.15
Rh1	x_in_3	x_in_3#5	4.041e-02	$X=5.2605 $Y=5.13
Rh2	x_in_2	x_in_2#4	4.041e-02	$X=5.2605 $Y=3.93
Rh3	x_in_1	x_in_1#5	4.041e-02	$X=5.2605 $Y=2.21
Rh4	x_in_0	x_in_0#4	4.041e-02	$X=5.2605 $Y=1.01
Rh5	VDD#7	VDD#10	8.333e-02	$X=8.43 $Y=7.45
Rh6	VDD#11	VDD#8	8.333e-02	$X=8.43 $Y=4.53
Rh7	VDD#9	VDD#12	8.333e-02	$X=8.43 $Y=1.61
Rh8	I7/avC13#14	I7/avC13#8	    1.7356	$X=8.0175 $Y=7.08
Rh9	I7/avC12#22	I7/avC12#12	    2.6332	$X=8.0525 $Y=6.55
Rh10	I7/avC12#23	I7/avC12#21	    0.7526	$X=10.4375 $Y=7.225
Rh11	y_in_3#1	y_in_3	    1.5312	$X=9.5005 $Y=5.73
Rh12	y_in_2#2	y_in_2	    1.5312	$X=9.5005 $Y=3.33
Rh13	y_in_1#1	y_in_1	    1.5312	$X=9.5005 $Y=2.81
Rh14	y_in_0#2	y_in_0	    1.5312	$X=9.5005 $Y=0.41
Rh15	I7/avC13#16	I7/avC13#13	    0.6552	$X=10.4425 $Y=7.45
Rh16	RST#46	RST#13	    3.5072	$X=8.8225 $Y=6.85
Rh17	VSS#238	VSS#234	8.333e-02	$X=12.99 $Y=8.91
Rh18	VSS#235	VSS#239	8.333e-02	$X=12.99 $Y=5.99
Rh19	VSS#240	VSS#236	8.333e-02	$X=12.99 $Y=3.07
Rh20	VSS#237	VSS#241	8.333e-02	$X=12.99 $Y=0.15
Rh21	avC31#68	avC31#10	    3.4562	$X=11.3875 $Y=5.58
Rh22	avC31#69	avC31#11	    3.4562	$X=11.3875 $Y=3.48
Rh23	avC31#70	avC31#14	    3.4562	$X=11.3875 $Y=2.66
Rh24	avC31#71	avC31#15	    3.4562	$X=11.3875 $Y=0.56
Rh25	avC32#68	avC32#64	    1.6055	$X=13.505 $Y=5.43
Rh26	avC32#64	avC32#25	    3.3957	$X=9.7 $Y=5.43
Rh27	avC32#69	avC32#65	    1.6055	$X=13.505 $Y=3.63
Rh28	avC32#65	avC32#26	    3.3957	$X=9.7 $Y=3.63
Rh29	avC32#70	avC32#66	    1.6055	$X=13.505 $Y=2.51
Rh30	avC32#66	avC32#27	    3.3957	$X=9.7 $Y=2.51
Rh31	avC32#71	avC32#67	    1.1055	$X=13.505 $Y=0.71
Rh32	avC32#67	avC32#28	    3.3957	$X=9.7 $Y=0.71
Rh33	avC35#93	avC35#89	    2.2851	$X=13.415 $Y=5.28
Rh34	avC35#89	avC35#29	    3.2063	$X=9.055 $Y=5.28
Rh35	avC35#94	avC35#90	    2.2851	$X=13.415 $Y=3.78
Rh36	avC35#90	avC35#30	    3.2063	$X=9.055 $Y=3.78
Rh37	avC35#95	avC35#91	    2.2851	$X=13.415 $Y=2.36
Rh38	avC35#91	avC35#31	    3.2063	$X=9.055 $Y=2.36
Rh39	avC35#96	avC35#92	    1.7851	$X=13.415 $Y=0.86
Rh40	avC35#92	avC35#32	    3.2063	$X=9.055 $Y=0.86
Rh41	x_out_3#7	x_out_3#5	    2.4191	$X=12.8825 $Y=4.83
Rh42	x_out_2#6	x_out_2#5	    2.4191	$X=12.8825 $Y=4.23
Rh43	x_out_1#7	x_out_1#5	    2.4191	$X=12.8825 $Y=1.91
Rh44	x_out_0#6	x_out_0#5	    2.4191	$X=12.8825 $Y=1.31
Rh45	x_out_b_3#11	x_out_b_3#10	    2.9518	$X=12.9 $Y=5.13
Rh46	x_out_b_2#12	x_out_b_2#9	    2.9518	$X=12.9 $Y=3.93
Rh47	x_out_b_1#11	x_out_b_1#10	    2.9518	$X=12.9 $Y=2.21
Rh48	x_out_b_0#12	x_out_b_0#9	    2.9518	$X=12.9 $Y=1.01
Rh49	avC33#39	avC33#38	    0.2008	$X=15.82 $Y=8.3
Rh50	avC33#38	avC33#37	    0.7127	$X=14.8875 $Y=8.3
Rh51	avC34#38	avC34#37	    0.2008	$X=15.82 $Y=6.6
Rh52	avC34#37	avC34#36	    0.7176	$X=14.8825 $Y=6.6
Rh53	avC36#109	avC36#105	    3.0616	$X=14.2725 $Y=4.98
Rh54	avC36#105	avC36#37	    3.0206	$X=9.265 $Y=4.98
Rh55	avC36#110	avC36#106	    3.0616	$X=14.2725 $Y=4.08
Rh56	avC36#106	avC36#38	    3.0206	$X=9.265 $Y=4.08
Rh57	avC36#111	avC36#107	    3.0616	$X=14.2725 $Y=2.06
Rh58	avC36#107	avC36#39	    3.0206	$X=9.265 $Y=2.06
Rh59	avC36#112	avC36#108	    2.5616	$X=14.2725 $Y=1.16
Rh60	avC36#108	avC36#40	    3.0206	$X=9.265 $Y=1.16
Rh61	y_out_3	y_out_3#5	6.123e-02	$X=16.3005 $Y=5.43
Rh62	y_out_2	y_out_2#5	6.123e-02	$X=16.3005 $Y=3.63
Rh63	y_out_1	y_out_1#5	6.123e-02	$X=16.3005 $Y=2.51
Rh64	y_out_0	y_out_0#5	6.123e-02	$X=16.3005 $Y=0.71
Rh65	y_out_b_3	y_out_b_3#10	    0.1362	$X=16.1355 $Y=5.13
Rh66	y_out_b_2	y_out_b_2#10	    0.1362	$X=16.1355 $Y=3.93
Rh67	y_out_b_1	y_out_b_1#10	    0.1362	$X=16.1355 $Y=2.21
Rh68	y_out_b_0	y_out_b_0#10	    0.1362	$X=16.1355 $Y=1.01
Rh69	x_out_b_3	x_out_b_3#12	    0.3089	$X=15.618 $Y=4.83
Rh70	x_out_b_2	x_out_b_2#11	    0.3089	$X=15.618 $Y=4.23
Rh71	x_out_b_1	x_out_b_1#12	    0.3089	$X=15.618 $Y=1.91
Rh72	x_out_b_0	x_out_b_0#11	    0.3089	$X=15.618 $Y=1.31
Rh73	x_out_3	x_out_3#6	    0.3444	$X=15.4605 $Y=5.28
Rh74	x_out_2	x_out_2#7	    0.3444	$X=15.4605 $Y=3.78
Rh75	x_out_1	x_out_1#6	    0.3444	$X=15.4605 $Y=2.36
Rh76	x_out_0	x_out_0#7	    0.3444	$X=15.4605 $Y=0.86
Ri1	x_in_3#4	x_in_3#5	    1.0000	$X=5.2 $Y=5.13
Ri2	x_in_2#4	x_in_2#5	    1.0000	$X=5.2 $Y=3.93
Ri3	x_in_1#4	x_in_1#5	    1.0000	$X=5.2 $Y=2.21
Ri4	x_in_0#4	x_in_0#5	    1.0000	$X=5.2 $Y=1.01
Ri5	RST#12	RST#13	    1.1391	$X=5.26 $Y=6.7125
Ri6	RST#14	RST#15	    1.9849	$X=5.435 $Y=7.475
Ri7	I7/avC7#8	I7/avC7#9	    2.1897	$X=5.585 $Y=7.45
Ri8	I7/avC12#8	I7/avC12#9	    1.2901	$X=5.78 $Y=8.35
Ri9	I7/avC11#4	I7/avC11#5	    1.3196	$X=5.745 $Y=6.55
Ri11	I7/avC12#12	I7/avC12#13	    0.5000	$X=5.93 $Y=6.7
Ri12	avC35#21	avC35#29	    1.0000	$X=6.175 $Y=5.28
Ri13	avC35#30	avC35#23	    1.0000	$X=6.175 $Y=3.78
Ri14	avC35#25	avC35#31	    1.0000	$X=6.175 $Y=2.36
Ri15	avC35#32	avC35#27	    1.0000	$X=6.175 $Y=0.86
Ri16	I7/avC13#8	I7/avC13#9	    1.0000	$X=6.24 $Y=7
Ri17	avC36#37	avC36#29	    1.0000	$X=6.385 $Y=4.98
Ri18	avC36#31	avC36#38	    1.0000	$X=6.385 $Y=4.08
Ri19	avC36#39	avC36#33	    1.0000	$X=6.385 $Y=2.06
Ri20	avC36#35	avC36#40	    1.0000	$X=6.385 $Y=1.16
Ri21	avC32#25	avC32#21	    0.5000	$X=6.82 $Y=5.43
Ri22	avC32#22	avC32#26	    0.5000	$X=6.82 $Y=3.63
Ri23	avC32#27	avC32#23	    0.5000	$X=6.82 $Y=2.51
Ri24	avC32#24	avC32#28	    0.5000	$X=6.82 $Y=0.71
Ri25	VDD#2	VDD#7	8.333e-02	$X=8.43 $Y=7.45
Ri26	VDD#8	VDD#3	8.333e-02	$X=8.43 $Y=4.53
Ri27	VDD#6	VDD#9	8.333e-02	$X=8.43 $Y=1.61
Ri28	avC31#9	avC31#10	    1.0000	$X=8.81 $Y=5.58
Ri29	avC31#11	avC31#12	    1.0000	$X=8.81 $Y=3.48
Ri30	avC31#13	avC31#14	    1.0000	$X=8.81 $Y=2.66
Ri31	avC31#15	avC31#16	    1.0000	$X=8.81 $Y=0.56
Ri32	I7/avC13#13	I7/avC13#14	    1.1909	$X=9.77 $Y=7.2525
Ri33	I7/avC12#21	I7/avC12#22	    1.3262	$X=10.175 $Y=6.8875
Ri34	x_out_b_3#9	x_out_b_3#10	    1.0000	$X=10.485 $Y=5.13
Ri35	x_out_b_2#9	x_out_b_2#10	    1.0000	$X=10.485 $Y=3.93
Ri36	x_out_b_1#9	x_out_b_1#10	    1.0000	$X=10.485 $Y=2.21
Ri37	x_out_b_0#9	x_out_b_0#10	    1.0000	$X=10.485 $Y=1.01
Ri38	x_out_3#4	x_out_3#5	    0.7899	$X=10.66 $Y=5.13
Ri39	x_out_2#5	x_out_2#4	    0.7899	$X=10.66 $Y=3.93
Ri40	x_out_1#4	x_out_1#5	    0.7899	$X=10.66 $Y=2.21
Ri41	x_out_0#5	x_out_0#4	    0.7899	$X=10.66 $Y=1.01
Ri42	I7/avC11#18	I7/avC11#17	    0.7658	$X=10.7 $Y=6.55
Ri43	I7/avC12#24	I7/avC12#25	    0.2778	$X=10.725 $Y=8.3375
Ri44	I7/avC12#25	I7/avC12#23	    0.3943	$X=10.725 $Y=7.6375
Ri45	y_in_3#1	y_in_3#2	    1.2813	$X=10.96 $Y=5.43
Ri46	y_in_2#1	y_in_2#2	    1.2813	$X=10.96 $Y=3.63
Ri47	y_in_1#1	y_in_1#2	    1.2813	$X=10.96 $Y=2.51
Ri48	y_in_0#1	y_in_0#2	    1.2813	$X=10.96 $Y=0.71
Ri49	I7/avC13#15	I7/avC13#16	    1.4306	$X=11.14 $Y=7.9
Ri50	I7/avC14#8	I7/avC14#9	    1.3503	$X=11.14 $Y=6.9125
Ri51	I7/avC4#22	I7/avC4#19	    0.7572	$X=11.49 $Y=7.4875
Ri52	avC35#89	avC35#62	    1.0000	$X=11.935 $Y=5.28
Ri53	avC35#64	avC35#90	    1.0000	$X=11.935 $Y=3.78
Ri54	avC35#91	avC35#66	    1.0000	$X=11.935 $Y=2.36
Ri55	avC35#68	avC35#92	    1.0000	$X=11.935 $Y=0.86
Ri56	I7/avC5#21	I7/avC5#19	    1.3683	$X=11.955 $Y=7.3725
Ri57	avC36#105	avC36#78	    1.0000	$X=12.145 $Y=4.98
Ri58	avC36#79	avC36#106	    1.0000	$X=12.145 $Y=4.08
Ri59	avC36#107	avC36#82	    1.0000	$X=12.145 $Y=2.06
Ri60	avC36#83	avC36#108	    1.0000	$X=12.145 $Y=1.16
Ri61	RST#45	RST#46	    1.1843	$X=12.385 $Y=7.5625
Ri62	avC32#64	avC32#58	    0.5000	$X=12.58 $Y=5.43
Ri63	avC32#59	avC32#65	    0.5000	$X=12.58 $Y=3.63
Ri64	avC32#66	avC32#60	    0.5000	$X=12.58 $Y=2.51
Ri65	avC32#61	avC32#67	    0.5000	$X=12.58 $Y=0.71
Ri66	VSS#234	VSS#230	8.333e-02	$X=12.99 $Y=8.91
Ri67	VSS#231	VSS#235	8.333e-02	$X=12.99 $Y=5.99
Ri68	VSS#236	VSS#232	8.333e-02	$X=12.99 $Y=3.07
Ri69	VSS#233	VSS#237	8.333e-02	$X=12.99 $Y=0.15
Ri70	avC31#64	avC31#67	    0.7753	$X=13.965 $Y=7.335
Ri71	avC31#67	avC31#68	    0.4907	$X=13.965 $Y=6.09
Ri73	avC31#68	avC31#69	    1.0061	$X=13.965 $Y=4.53
Ri75	avC31#69	avC31#70	    0.3876	$X=13.965 $Y=3.07
Ri77	avC31#70	avC31#71	    1.0061	$X=13.965 $Y=1.61
Ri79	avC34#36	avC34#32	    1.6083	$X=14.125 $Y=7.1725
Ri80	avC33#37	avC33#34	    0.5000	$X=14.16 $Y=8.3
Ri81	avC32#62	avC32#68	    0.9523	$X=14.43 $Y=5.9025
Ri82	avC32#68	avC32#69	    0.8611	$X=14.43 $Y=4.53
Ri83	avC32#69	avC32#70	    0.5326	$X=14.43 $Y=3.07
Ri84	avC32#70	avC32#71	    1.3611	$X=14.43 $Y=1.61
Ri85	avC35#86	avC35#93	    1.3462	$X=14.895 $Y=6.6775
Ri86	avC35#93	avC35#94	    0.7216	$X=14.895 $Y=4.53
Ri87	avC35#94	avC35#95	    0.6775	$X=14.895 $Y=3.07
Ri88	avC35#95	avC35#96	    1.2216	$X=14.895 $Y=1.61
Ri89	x_out_3#6	x_out_3#7	    1.2115	$X=15.105 $Y=5.055
Ri90	x_out_2#6	x_out_2#7	    1.2115	$X=15.105 $Y=4.005
Ri91	x_out_1#6	x_out_1#7	    1.2115	$X=15.105 $Y=2.135
Ri92	x_out_0#6	x_out_0#7	    1.2115	$X=15.105 $Y=1.085
Ri93	x_out_b_3#11	x_out_b_3#12	    1.1363	$X=15.315 $Y=4.98
Ri94	x_out_b_2#11	x_out_b_2#12	    1.1363	$X=15.315 $Y=4.08
Ri95	x_out_b_1#11	x_out_b_1#12	    1.1363	$X=15.315 $Y=2.06
Ri96	x_out_b_0#11	x_out_b_0#12	    1.1363	$X=15.315 $Y=1.16
Ri97	avC33#35	avC33#38	    0.5000	$X=15.615 $Y=8.3
Ri98	avC34#37	avC34#34	    0.5000	$X=15.615 $Y=6.6
Ri99	y_out_b_3#9	y_out_b_3#10	    0.5000	$X=16.005 $Y=5.13
Ri100	y_out_b_2#10	y_out_b_2#9	    0.5000	$X=16.005 $Y=3.93
Ri101	y_out_b_1#9	y_out_b_1#10	    0.5000	$X=16.005 $Y=2.21
Ri102	y_out_b_0#10	y_out_b_0#9	    0.5000	$X=16.005 $Y=1.01
Ri103	avC33#36	avC33#39	    0.5000	$X=16.025 $Y=8.3
Ri104	avC34#38	avC34#35	    0.5000	$X=16.025 $Y=6.6
Ri105	y_out_3#4	y_out_3#5	    0.5000	$X=16.225 $Y=5.43
Ri106	y_out_2#5	y_out_2#4	    0.5000	$X=16.225 $Y=3.63
Ri107	y_out_1#4	y_out_1#5	    0.5000	$X=16.225 $Y=2.51
Ri108	y_out_0#5	y_out_0#4	    0.5000	$X=16.225 $Y=0.71
Ri109	avC36#102	avC36#109	    0.6783	$X=16.4 $Y=5.6775
Ri110	avC36#109	avC36#110	    0.4263	$X=16.4 $Y=4.53
Ri111	avC36#110	avC36#111	    0.9846	$X=16.4 $Y=3.07
Ri112	avC36#111	avC36#112	    0.9263	$X=16.4 $Y=1.61
Rj1	x_in_3#4	x_in_3#2	    0.5000	$X=5.2 $Y=5.13
Rj2	x_in_2#2	x_in_2#5	    0.5000	$X=5.2 $Y=3.93
Rj3	x_in_1#4	x_in_1#2	    0.5000	$X=5.2 $Y=2.21
Rj4	x_in_0#2	x_in_0#5	    0.5000	$X=5.2 $Y=1.01
Rj5	I7/avC12#9	I7/avC12#6	    0.5612	$X=5.73 $Y=8.05
Rj6	I7/avC11#5	I7/avC11#2	    0.5612	$X=5.73 $Y=6.85
Rj8	avC35#21	avC35#17	    0.4861	$X=5.7725 $Y=5.28
Rj10	avC35#23	avC35#18	    0.4861	$X=5.7725 $Y=3.78
Rj12	avC35#25	avC35#19	    0.4861	$X=5.7725 $Y=2.36
Rj14	avC35#27	avC35#20	    0.4861	$X=5.7725 $Y=0.86
Rj16	avC36#29	avC36#18	    1.0759	$X=5.8875 $Y=4.98
Rj18	avC36#31	avC36#22	    1.0759	$X=5.8875 $Y=4.08
Rj20	avC36#33	avC36#24	    1.0759	$X=5.8875 $Y=2.06
Rj22	avC36#35	avC36#28	    1.0759	$X=5.8875 $Y=1.16
Rj23	I7/avC12#18	I7/avC12#13	    0.9384	$X=6.2925 $Y=6.7
Rj24	I7/avC12#13	I7/avC12#10	4.762e-02	$X=5.89 $Y=6.7
Rj25	I7/avC6#9	I7/avC6#8	    0.9861	$X=6.2525 $Y=8.2
Rj26	I7/avC6#8	I7/avC6#6	    0.7228	$X=5.66 $Y=8.2
Rj27	avC32#21	avC32#10	    1.0000	$X=6.82 $Y=5.43
Rj28	avC32#12	avC32#22	    1.0000	$X=6.82 $Y=3.63
Rj29	avC32#23	avC32#16	    1.0000	$X=6.82 $Y=2.51
Rj30	avC32#18	avC32#24	    1.0000	$X=6.82 $Y=0.71
Rj31	I7/avC13#10	I7/avC13#9	    0.3799	$X=6.5525 $Y=7
Rj32	I7/avC13#9	I7/avC13#7	    0.6959	$X=6.055 $Y=7
Rj33	CLK#16	CLK	    0.4888	$X=6.433 $Y=7.9
Rj34	CLK	CLK#17	8.708e-02	$X=5.9745 $Y=7.9
Rj35	CLK#17	CLK#8	    0.8303	$X=5.5825 $Y=7.9
Rj36	CLK#13	CLK#17	    0.5000	$X=5.87 $Y=7.9
Rj37	I5/avC5#16	I5/avC5#14	    0.6714	$X=6.82 $Y=5.13
Rj38	I5/avC5#14	I5/avC5#11	    1.1534	$X=6.1375 $Y=5.13
Rj39	I3/avC5#16	I3/avC5#14	    0.6714	$X=6.82 $Y=3.93
Rj40	I3/avC5#14	I3/avC5#11	    1.1534	$X=6.1375 $Y=3.93
Rj41	I0/avC5#16	I0/avC5#14	    0.6714	$X=6.82 $Y=2.21
Rj42	I0/avC5#14	I0/avC5#11	    1.1534	$X=6.1375 $Y=2.21
Rj43	I1/avC5#16	I1/avC5#14	    0.6714	$X=6.82 $Y=1.01
Rj44	I1/avC5#14	I1/avC5#11	    1.1534	$X=6.1375 $Y=1.01
Rj45	RST#17	RST#14	    1.6222	$X=6.3675 $Y=8.35
Rj46	RST#19	RST	    1.1328	$X=6.759 $Y=6.55
Rj47	RST	RST#15	    0.4846	$X=5.8655 $Y=6.55
Rj48	RST#15	RST	3.217e-02	$X=5.378 $Y=6.55
Rj49	RST	RST#22	4.408e-02	$X=5.3345 $Y=6.55
Rj50	RST#22	RST#12	4.898e-03	$X=5.265 $Y=6.5625
Rj51	RST#8	RST#22	    0.5000	$X=5.27 $Y=6.55
Rj52	I5/avC3#5	I5/avC3#4	    1.2984	$X=6.6025 $Y=4.83
Rj53	I3/avC3#5	I3/avC3#4	    1.2984	$X=6.6025 $Y=4.23
Rj54	I0/avC3#5	I0/avC3#4	    1.2984	$X=6.6025 $Y=1.91
Rj55	I1/avC3#5	I1/avC3#4	    1.2984	$X=6.6025 $Y=1.31
Rj56	I7/I1/avC5#16	I7/I1/avC5#14	    0.6714	$X=7.3 $Y=8.05
Rj57	I7/I1/avC5#14	I7/I1/avC5#11	    1.1534	$X=6.6175 $Y=8.05
Rj58	I7/I2/avC5#16	I7/I2/avC5#14	    0.6714	$X=7.3 $Y=6.85
Rj59	I7/I2/avC5#14	I7/I2/avC5#11	    1.1534	$X=6.6175 $Y=6.85
Rj60	I7/I1/avC3#5	I7/I1/avC3#4	    1.2984	$X=7.0825 $Y=7.75
Rj61	I7/I2/avC3#5	I7/I2/avC3#4	    1.2984	$X=7.0825 $Y=7.15
Rj62	avC35#45	avC35#41	    0.7419	$X=7.2775 $Y=4.98
Rj63	avC35#46	avC35#42	    0.7419	$X=7.2775 $Y=4.08
Rj64	avC35#47	avC35#43	    0.7419	$X=7.2775 $Y=2.06
Rj65	avC35#48	avC35#44	    0.7419	$X=7.2775 $Y=1.16
Rj66	avC36#53	avC36#49	    0.8403	$X=7.1725 $Y=5.28
Rj67	avC36#54	avC36#50	    0.8403	$X=7.1725 $Y=3.78
Rj68	avC36#55	avC36#51	    0.8403	$X=7.1725 $Y=2.36
Rj69	avC36#56	avC36#52	    0.8403	$X=7.1725 $Y=0.86
Rj70	I7/avC6#11	I7/avC6#10	    0.7419	$X=7.7575 $Y=7.9
Rj71	I7/avC12#20	I7/avC12#19	    0.7419	$X=7.7575 $Y=7
Rj72	CLK#18	CLK#15	    0.8403	$X=7.6525 $Y=8.2
Rj73	I7/avC13#12	I7/avC13#11	    0.8403	$X=7.6525 $Y=6.7
Rj74	VDD#1	VDD#2	    0.1667	$X=8.43 $Y=7.45
Rj75	VDD#3	VDD#4	    0.1667	$X=8.43 $Y=4.53
Rj76	VDD#5	VDD#6	    0.1667	$X=8.43 $Y=1.61
Rj77	avC31#17	avC31#9	    0.6328	$X=8.905 $Y=5.43
Rj78	avC31#18	avC31#12	    0.6328	$X=8.905 $Y=3.63
Rj79	avC31#19	avC31#13	    0.6328	$X=8.905 $Y=2.51
Rj80	avC31#20	avC31#16	    0.6328	$X=8.905 $Y=0.71
Rj81	I5/avC9#14	I5/avC9#11	    1.4531	$X=8.6475 $Y=5.13
Rj82	I3/avC9#14	I3/avC9#11	    1.4531	$X=8.6475 $Y=3.93
Rj83	I0/avC9#14	I0/avC9#11	    1.4531	$X=8.6475 $Y=2.21
Rj84	I1/avC9#14	I1/avC9#11	    1.4531	$X=8.6475 $Y=1.01
Rj85	I7/avC7#10	I7/avC7#8	    2.7526	$X=7.45 $Y=8.5
Rj86	I7/avC7#11	I7/avC7#9	    2.7533	$X=7.45 $Y=6.4
Rj87	I7/avC7#9	I7/avC7#6	    0.5558	$X=5.5275 $Y=6.4
Rj88	I5/avC6#12	I5/avC6#7	    0.5314	$X=8.9975 $Y=4.83
Rj89	I3/avC6#12	I3/avC6#7	    0.5314	$X=8.9975 $Y=4.23
Rj90	I0/avC6#12	I0/avC6#7	    0.5314	$X=8.9975 $Y=1.91
[...]
C1117	VDD#85	VSS	9.02119e-17	$X=8.212 $Y=7.6905
C1118	VDD#81	VSS	9.10166e-17	$X=8.212 $Y=6.856
C1119	I5/avC9#12	VSS	8.27199e-17	$X=8.167 $Y=4.813
C1120	I3/avC9#13	VSS	8.28057e-17	$X=8.167 $Y=4.2455
C1121	I0/avC9#12	VSS	8.27732e-17	$X=8.167 $Y=1.979
C1122	I1/avC9#13	VSS	8.28057e-17	$X=8.167 $Y=1.4115
C1123	I7/I1/avC3#9	VSS	4.65818e-17	$X=8.015 $Y=7.736
C1124	I7/I2/avC3#11	VSS	4.65027e-17	$X=8.015 $Y=6.826
C1125	I5/avC3#11	VSS	7.96987e-17	$X=7.892 $Y=4.849
C1126	I3/avC3#6	VSS	7.94835e-17	$X=7.892 $Y=4.2095
C1127	I0/avC3#11	VSS	7.96987e-17	$X=7.892 $Y=1.9995
C1128	I1/avC3#6	VSS	7.94835e-17	$X=7.892 $Y=1.3605
C1129	VDD#88	VSS	9.48013e-17	$X=7.836 $Y=7.6905
C1130	VDD#84	VSS	9.49601e-17	$X=7.836 $Y=6.856
C1131	VDD#147	VSS	8.95375e-17	$X=7.761 $Y=4.946
C1132	VDD#143	VSS	8.97468e-17	$X=7.761 $Y=4.112
C1133	VDD#207	VSS	8.95467e-17	$X=7.761 $Y=2.202
C1134	VDD#203	VSS	8.97468e-17	$X=7.761 $Y=1.3675
C1135	I5/avC3#9	VSS	4.70102e-17	$X=7.563 $Y=4.984
C1136	I3/avC3#11	VSS	4.68972e-17	$X=7.563 $Y=4.074
C1137	I0/avC3#9	VSS	4.70102e-17	$X=7.563 $Y=2.232
C1138	I1/avC3#11	VSS	4.68972e-17	$X=7.563 $Y=1.322
C1139	VDD#151	VSS	9.48893e-17	$X=7.385 $Y=4.946
C1140	VDD#146	VSS	9.48893e-17	$X=7.385 $Y=4.112
C1141	VDD#211	VSS	9.48893e-17	$X=7.385 $Y=2.202
C1142	VDD#206	VSS	9.48893e-17	$X=7.385 $Y=1.3675
C1143	VDD#92	VSS	9.17886e-17	$X=6.6045 $Y=7.9465
C1144	VDD#87	VSS	9.06807e-17	$X=6.6045 $Y=6.8155
C1145	I7/I1/avC5#9	VSS	3.99621e-17	$X=6.2795 $Y=8.041
C1146	I7/I2/avC5#9	VSS	3.70328e-17	$X=6.274 $Y=6.734
C1147	VDD#153	VSS	9.19347e-17	$X=6.1355 $Y=5.0945
C1148	VDD#150	VSS	9.21307e-17	$X=6.1355 $Y=3.9635
C1149	VDD#213	VSS	9.21307e-17	$X=6.1355 $Y=2.2425
C1150	VDD#210	VSS	9.16474e-17	$X=6.1355 $Y=1.1115
C1151	I7/I1/avC5#12	VSS	8.713e-17	$X=6.119 $Y=7.647
C1152	I7/I2/avC5#13	VSS	8.62857e-17	$X=6.119 $Y=7.0795
C1153	I7/avC12#7	VSS	5.77295e-17	$X=5.806 $Y=7.682
C1154	I5/avC5#9	VSS	4.05958e-17	$X=5.8105 $Y=5.186
C1155	I3/avC5#9	VSS	3.83284e-17	$X=5.8045 $Y=3.876
C1156	I0/avC5#9	VSS	4.06761e-17	$X=5.8105 $Y=2.3315
C1157	I1/avC5#9	VSS	3.83161e-17	$X=5.8045 $Y=1.018
C1158	I7/avC6#7	VSS	7.87391e-17	$X=5.631 $Y=7.6935
C1159	I7/avC7#5	VSS	9.10422e-17	$X=5.6625 $Y=6.9515
C1160	I5/avC5#12	VSS	8.67815e-17	$X=5.6535 $Y=4.813
C1161	I3/avC5#13	VSS	8.6819e-17	$X=5.6535 $Y=4.2455
C1162	I0/avC5#12	VSS	8.67868e-17	$X=5.6535 $Y=1.979
C1163	I1/avC5#13	VSS	8.6819e-17	$X=5.6535 $Y=1.4115
C1164	VDD#93	VSS	4.51172e-17	$X=5.423 $Y=7.6705
C1165	VDD#91	VSS	3.67852e-17	$X=5.423 $Y=7.0435
C1166	x_in_3#3	VSS	5.35993e-17	$X=5.3355 $Y=4.8185
C1167	x_in_2#1	VSS	5.34084e-17	$X=5.335 $Y=4.24
C1168	x_in_1#3	VSS	5.35993e-17	$X=5.3355 $Y=1.955
C1169	x_in_0#1	VSS	5.34084e-17	$X=5.335 $Y=1.376
C1170	y_out_3#1	VSS	4.28067e-17	$X=16.2665 $Y=5.619
C1171	y_out_2#3	VSS	4.86596e-17	$X=16.2665 $Y=3.4395
C1172	y_out_1#1	VSS	4.85637e-17	$X=16.2665 $Y=2.7905
C1173	y_out_0#3	VSS	4.68861e-17	$X=16.2665 $Y=0.611
C1174	avC35#79	VSS	7.50354e-17	$X=16.036 $Y=8.389
C1175	avC36#97	VSS	7.77968e-17	$X=16.0205 $Y=6.288
C1176	y_out_b_3#8	VSS	5.15596e-17	$X=15.8135 $Y=5.6145
C1177	y_out_b_2#6	VSS	4.90099e-17	$X=15.8135 $Y=3.4435
C1178	y_out_b_1#8	VSS	4.90099e-17	$X=15.8135 $Y=2.7875
C1179	y_out_b_0#6	VSS	4.74597e-17	$X=15.8135 $Y=0.6165
C1180	avC35#76	VSS	7.86917e-17	$X=15.642 $Y=8.389
C1181	avC36#94	VSS	8.61873e-17	$X=15.628 $Y=6.288
C1182	avC35#73	VSS	7.74497e-17	$X=15.2475 $Y=8.389
C1183	avC36#91	VSS	7.94947e-17	$X=15.235 $Y=6.288
C1184	I4/avC6#8	VSS	6.13326e-17	$X=15.156 $Y=5.609
C1185	I6/avC6#8	VSS	6.13269e-17	$X=15.156 $Y=3.4495
C1186	I2/avC6#8	VSS	6.13269e-17	$X=15.156 $Y=2.7915
C1187	I8/avC6#8	VSS	5.82525e-17	$X=15.156 $Y=0.632
C1188	clk_div4_out#1	VSS	8.91751e-17	$X=14.792 $Y=8.3585
C1189	avC32#57	VSS	7.70714e-17	$X=14.612 $Y=6.288
C1190	avC32#54	VSS	8.8506e-17	$X=14.219 $Y=6.288
C1191	I4/avC9#8	VSS	3.51184e-17	$X=13.9745 $Y=5.54
C1192	I6/avC9#8	VSS	3.61874e-17	$X=13.9725 $Y=3.524
C1193	I2/avC9#8	VSS	3.39302e-17	$X=13.9745 $Y=2.682
C1194	I8/avC9#8	VSS	3.63786e-17	$X=13.9725 $Y=0.668
C1195	avC32#51	VSS	8.12491e-17	$X=13.826 $Y=6.288
C1196	I4/avC9#13	VSS	5.61541e-17	$X=13.7505 $Y=5.526
C1197	I6/avC9#12	VSS	5.4218e-17	$X=13.7505 $Y=3.532
C1198	I2/avC9#13	VSS	5.42967e-17	$X=13.7505 $Y=2.7
C1199	I8/avC9#12	VSS	5.45858e-17	$X=13.7505 $Y=0.706
C1200	I4/avC3#5	VSS	3.37749e-17	$X=13.5285 $Y=5.5685
C1201	I6/avC3#9	VSS	3.41049e-17	$X=13.5285 $Y=3.49
C1202	I2/avC3#5	VSS	3.40185e-17	$X=13.5285 $Y=2.699
C1203	I8/avC3#9	VSS	3.30767e-17	$X=13.5285 $Y=0.621
C1204	avC31#55	VSS	7.63858e-17	$X=13.3245 $Y=8.3885
C1205	I7/avC4#18	VSS	4.66151e-17	$X=13.2175 $Y=6.3635
C1206	I4/avC3#11	VSS	5.71946e-17	$X=13.033 $Y=5.607
C1207	I6/avC3#8	VSS	5.6979e-17	$X=13.033 $Y=3.451
C1208	I2/avC3#11	VSS	5.7007e-17	$X=13.033 $Y=2.7905
C1209	I8/avC3#8	VSS	5.70639e-17	$X=13.033 $Y=0.6345
C1210	VDD#43	VSS	9.03585e-17	$X=13.018 $Y=6.382
C1211	avC31#52	VSS	7.86864e-17	$X=12.9305 $Y=8.3885
C1212	avC31#49	VSS	7.8203e-17	$X=12.5365 $Y=8.3885
C1213	I7/avC5#18	VSS	5.05204e-17	$X=12.5525 $Y=6.2645
C1214	I4/avC5#15	VSS	6.37027e-17	$X=12.393 $Y=5.532
C1215	I6/avC5#15	VSS	6.34971e-17	$X=12.393 $Y=3.526
C1216	I2/avC5#15	VSS	6.3478e-17	$X=12.393 $Y=2.682
C1217	I8/avC5#15	VSS	6.20367e-17	$X=12.393 $Y=0.676
C1218	I7/avC4#11	VSS	7.20213e-17	$X=12.287 $Y=6.2805
C1219	VDD#57	VSS	1.02544e-16	$X=11.8445 $Y=6.3875
C1220	I7/avC5#10	VSS	2.88459e-17	$X=11.652 $Y=6.3475
C1221	avC34#25	VSS	1.10155e-16	$X=11.637 $Y=8.3585
C1222	I4/avC5#8	VSS	3.49644e-17	$X=11.4395 $Y=5.54
C1223	I6/avC5#8	VSS	3.51831e-17	$X=11.4395 $Y=3.524
C1224	I2/avC5#8	VSS	3.30671e-17	$X=11.4395 $Y=2.682
C1225	I8/avC5#8	VSS	3.44648e-17	$X=11.4395 $Y=0.668
C1226	I4/avC5#13	VSS	5.67878e-17	$X=11.2435 $Y=5.526
C1227	I6/avC5#12	VSS	5.52084e-17	$X=11.2435 $Y=3.532
C1228	I2/avC5#13	VSS	5.52586e-17	$X=11.2435 $Y=2.7
C1229	I8/avC5#12	VSS	5.53402e-17	$X=11.2435 $Y=0.706
C1230	I7/avC13#17	VSS	4.93654e-17	$X=11.1515 $Y=8.448
C1231	I7/avC14#12	VSS	4.85664e-17	$X=11.1515 $Y=6.268
C1232	y_in_3#3	VSS	5.59187e-17	$X=10.9845 $Y=5.534
C1233	y_in_2#5	VSS	5.60338e-17	$X=10.9845 $Y=3.5245
C1234	y_in_1#3	VSS	5.59077e-17	$X=10.9845 $Y=2.678
C1235	y_in_0#5	VSS	5.56026e-17	$X=10.9845 $Y=0.6685
C1236	I7/avC12#29	VSS	4.67044e-17	$X=10.7015 $Y=8.4415
C1237	I7/avC11#20	VSS	4.68828e-17	$X=10.7015 $Y=6.2705
C1238	x_out_3#1	VSS	5.55582e-17	$X=10.6865 $Y=5.619
C1239	x_out_2#3	VSS	5.43476e-17	$X=10.6865 $Y=3.4395
C1240	x_out_1#1	VSS	5.42391e-17	$X=10.6865 $Y=2.7905
C1241	x_out_0#3	VSS	5.33582e-17	$X=10.6865 $Y=0.611
C1242	x_out_b_3#8	VSS	5.57929e-17	$X=10.237 $Y=5.6145
C1243	x_out_b_2#6	VSS	5.14121e-17	$X=10.237 $Y=3.4435
C1244	x_out_b_1#8	VSS	5.14121e-17	$X=10.237 $Y=2.7875
C1245	x_out_b_0#6	VSS	5.25341e-17	$X=10.237 $Y=0.6165
C1246	I7/I1/avC6#8	VSS	6.10557e-17	$X=10.0615 $Y=8.4265
C1247	I7/I2/avC6#8	VSS	6.29968e-17	$X=10.0615 $Y=6.267
C1248	I5/avC6#8	VSS	6.2157e-17	$X=9.5985 $Y=5.609
C1249	I3/avC6#8	VSS	6.09892e-17	$X=9.5985 $Y=3.4495
C1250	I0/avC6#8	VSS	6.09892e-17	$X=9.5985 $Y=2.7915
C1251	I1/avC6#8	VSS	6.16746e-17	$X=9.5985 $Y=0.632
C1252	I7/I1/avC9#8	VSS	3.47004e-17	$X=8.8065 $Y=8.398
C1253	I7/I2/avC9#8	VSS	3.65699e-17	$X=8.8085 $Y=6.3795
C1254	I7/I1/avC9#13	VSS	5.42751e-17	$X=8.64 $Y=8.3525
C1255	I7/I2/avC9#12	VSS	5.4365e-17	$X=8.64 $Y=6.3585
C1256	I7/I1/avC3#6	VSS	3.26754e-17	$X=8.3405 $Y=8.4375
C1257	I7/I2/avC3#10	VSS	3.36148e-17	$X=8.3405 $Y=6.3595
C1258	I5/avC9#8	VSS	3.24811e-17	$X=8.337 $Y=5.54
C1259	I3/avC9#8	VSS	3.46642e-17	$X=8.339 $Y=3.524
C1260	I0/avC9#8	VSS	3.24785e-17	$X=8.337 $Y=2.682
C1261	I1/avC9#8	VSS	3.54478e-17	$X=8.339 $Y=0.668
C1262	I5/avC9#13	VSS	5.33295e-17	$X=8.175 $Y=5.526
C1263	I3/avC9#12	VSS	5.31403e-17	$X=8.175 $Y=3.532
C1264	I0/avC9#13	VSS	5.26768e-17	$X=8.175 $Y=2.7
C1265	I1/avC9#12	VSS	5.39942e-17	$X=8.175 $Y=0.706
C1266	I7/I1/avC3#12	VSS	5.87667e-17	$X=7.9395 $Y=8.424
C1267	I7/I2/avC3#9	VSS	5.97657e-17	$X=7.9395 $Y=6.268
C1268	I5/avC3#6	VSS	3.2643e-17	$X=7.8685 $Y=5.5685
C1269	I3/avC3#10	VSS	3.25289e-17	$X=7.869 $Y=3.49
C1270	I0/avC3#6	VSS	3.24336e-17	$X=7.8685 $Y=2.699
C1271	I1/avC3#10	VSS	3.32217e-17	$X=7.869 $Y=0.621
C1272	I5/avC3#12	VSS	5.91328e-17	$X=7.4765 $Y=5.607
C1273	I3/avC3#9	VSS	5.83282e-17	$X=7.4765 $Y=3.451
C1274	I0/avC3#12	VSS	5.83527e-17	$X=7.4765 $Y=2.7905
C1275	I1/avC3#9	VSS	5.89094e-17	$X=7.4765 $Y=0.6345
C1276	I7/I1/avC5#15	VSS	6.20426e-17	$X=7.239 $Y=8.3825
C1277	I7/I2/avC5#15	VSS	6.26659e-17	$X=7.239 $Y=6.3765
C1278	I5/avC5#15	VSS	6.38327e-17	$X=6.7705 $Y=5.532
C1279	I3/avC5#15	VSS	6.32224e-17	$X=6.7705 $Y=3.526
C1280	I0/avC5#15	VSS	6.32032e-17	$X=6.7705 $Y=2.682
C1281	I1/avC5#15	VSS	6.35334e-17	$X=6.7705 $Y=0.676
C1282	I7/I1/avC5#8	VSS	3.35086e-17	$X=6.2715 $Y=8.398
C1283	I7/I2/avC5#8	VSS	3.64805e-17	$X=6.275 $Y=6.3795
C1284	I7/I1/avC5#13	VSS	5.57372e-17	$X=6.133 $Y=8.3525
C1285	I7/I2/avC5#12	VSS	5.64951e-17	$X=6.133 $Y=6.3585
C1286	I7/avC12#5	VSS	5.75718e-17	$X=5.8205 $Y=8.39
C1287	I7/avC11#3	VSS	6.31345e-17	$X=5.8205 $Y=6.38
C1288	I5/avC5#8	VSS	3.31876e-17	$X=5.802 $Y=5.54
C1289	I3/avC5#8	VSS	3.48656e-17	$X=5.806 $Y=3.524
C1290	I0/avC5#8	VSS	3.2775e-17	$X=5.802 $Y=2.682
C1291	I1/avC5#8	VSS	3.634e-17	$X=5.806 $Y=0.668
C1292	I7/avC6#5	VSS	5.81735e-17	$X=5.553 $Y=8.514
C1293	I7/avC7#7	VSS	3.82584e-17	$X=5.5205 $Y=6.233
C1294	I5/avC5#13	VSS	5.68506e-17	$X=5.668 $Y=5.526
C1295	I3/avC5#12	VSS	5.68982e-17	$X=5.668 $Y=3.532
C1296	I0/avC5#13	VSS	5.6912e-17	$X=5.668 $Y=2.7
C1297	I1/avC5#12	VSS	5.74999e-17	$X=5.668 $Y=0.706
C1298	x_in_3#1	VSS	4.95957e-17	$X=5.351 $Y=5.534
C1299	x_in_2#3	VSS	4.92134e-17	$X=5.351 $Y=3.5245
C1300	x_in_1#1	VSS	4.90561e-17	$X=5.351 $Y=2.678
C1301	x_in_0#3	VSS	5.05215e-17	$X=5.351 $Y=0.6685
C1302	I5/avC5#2	VSS	1.68064e-17	$X=7.489 $Y=5.369
C1303	I5/avC5#3	VSS	8.85348e-18	$X=7.287 $Y=5.3685
C1304	I3/avC5#2	VSS	1.64865e-17	$X=7.489 $Y=3.6905
C1305	I3/avC5#3	VSS	8.84604e-18	$X=7.287 $Y=3.69
C1306	I0/avC5#2	VSS	1.68035e-17	$X=7.489 $Y=2.4855
C1307	I0/avC5#3	VSS	9.19344e-18	$X=7.287 $Y=2.4855
C1308	I1/avC5#2	VSS	1.54046e-17	$X=7.489 $Y=0.807
C1309	I1/avC5#3	VSS	7.81321e-18	$X=7.287 $Y=0.8065
C1310	I7/I1/avC5#2	VSS	1.62745e-17	$X=7.963 $Y=8.2525
C1311	I7/I1/avC5#3	VSS	8.12086e-18	$X=7.761 $Y=8.252
C1312	I7/I2/avC5#2	VSS	1.57722e-17	$X=7.963 $Y=6.574
C1313	I7/I2/avC5#3	VSS	8.30894e-18	$X=7.761 $Y=6.573
C1314	I5/avC9#2	VSS	1.68615e-17	$X=9.6615 $Y=5.369
C1315	I5/avC9#3	VSS	1.05627e-17	$X=9.4595 $Y=5.3685
C1316	I3/avC9#2	VSS	1.90843e-17	$X=9.6615 $Y=3.6905
C1317	I3/avC9#3	VSS	1.02793e-17	$X=9.4595 $Y=3.69
C1318	I0/avC9#2	VSS	1.7694e-17	$X=9.6615 $Y=2.4855
C1319	I0/avC9#3	VSS	1.06226e-17	$X=9.4595 $Y=2.4855
C1320	I1/avC9#2	VSS	1.80938e-17	$X=9.6615 $Y=0.807
C1321	I1/avC9#3	VSS	9.28465e-18	$X=9.4595 $Y=0.8065
C1322	CLK#9	VSS	2.72648e-17	$X=5.295 $Y=8.0075
C1323	CLK#10	VSS	3.45409e-17	$X=5.3385 $Y=8.02
C1324	RST#9	VSS	1.78635e-17	$X=5.295 $Y=6.5695
C1325	RST#10	VSS	3.35748e-17	$X=5.3385 $Y=6.577
C1326	I7/I1/avC9#2	VSS	1.80268e-17	$X=10.1355 $Y=8.2525
C1327	I7/I1/avC9#3	VSS	8.93933e-18	$X=9.933 $Y=8.252
C1328	I7/I2/avC9#2	VSS	1.7588e-17	$X=10.1355 $Y=6.574
C1329	I7/I2/avC9#3	VSS	9.25057e-18	$X=9.933 $Y=6.573
C1330	avC36#19	VSS	5.37153e-17	$X=5.443 $Y=5.04
C1331	avC36#20	VSS	5.38725e-17	$X=5.4435 $Y=4.019
C1332	avC36#25	VSS	5.37217e-17	$X=5.443 $Y=2.147
C1333	avC36#26	VSS	5.38725e-17	$X=5.4435 $Y=1.126
C1334	x_out_b_3#2	VSS	9.56972e-18	$X=10.576 $Y=5.374
C1335	x_out_b_2#2	VSS	1.01258e-17	$X=10.576 $Y=3.6855
C1336	x_out_b_1#2	VSS	9.54338e-18	$X=10.576 $Y=2.4735
C1337	x_out_b_0#2	VSS	1.01258e-17	$X=10.576 $Y=0.7845
C1338	I7/avC13#6	VSS	3.36468e-17	$X=5.8915 $Y=7.0045
C1339	I7/avC12#15	VSS	1.1166e-17	$X=11.053 $Y=8.275
C1340	I7/avC11#7	VSS	9.11932e-18	$X=11.053 $Y=6.586
C1341	I7/avC4#2	VSS	1.07723e-17	$X=11.5545 $Y=8.2755
C1342	avC32#9	VSS	4.56161e-17	$X=6.8565 $Y=5.3475
C1343	avC32#11	VSS	4.31337e-17	$X=6.843 $Y=5.4325
C1344	avC32#13	VSS	4.42171e-17	$X=6.8435 $Y=3.627
C1345	avC32#14	VSS	4.53372e-17	$X=6.856 $Y=3.7115
C1346	avC32#15	VSS	4.56161e-17	$X=6.8565 $Y=2.452
C1347	avC32#17	VSS	4.39352e-17	$X=6.843 $Y=2.528
C1348	avC32#19	VSS	4.32688e-17	$X=6.8435 $Y=0.723
C1349	avC32#20	VSS	4.53372e-17	$X=6.856 $Y=0.816
C1350	I7/avC5#2	VSS	1.13653e-17	$X=12.0165 $Y=8.2755
C1351	I5/avC3#7	VSS	8.94041e-17	$X=7.8835 $Y=5.272
C1352	I5/avC3#8	VSS	5.77263e-17	$X=7.416 $Y=5.3185
C1353	I3/avC3#7	VSS	8.88825e-17	$X=7.8835 $Y=3.7875
C1354	I3/avC3#8	VSS	5.72045e-17	$X=7.416 $Y=3.74
C1355	I0/avC3#7	VSS	8.83159e-17	$X=7.8835 $Y=2.4195
C1356	I0/avC3#8	VSS	5.75145e-17	$X=7.416 $Y=2.456
C1357	I1/avC3#7	VSS	8.88591e-17	$X=7.8835 $Y=0.935
C1358	I1/avC3#8	VSS	5.6775e-17	$X=7.416 $Y=0.8775
C1359	I4/avC5#2	VSS	1.72096e-17	$X=13.177 $Y=5.369
C1360	I4/avC5#3	VSS	9.4067e-18	$X=12.9745 $Y=5.3685
C1361	I6/avC5#2	VSS	1.69032e-17	$X=13.177 $Y=3.6905
C1362	I6/avC5#3	VSS	8.8989e-18	$X=12.9745 $Y=3.69
C1363	I2/avC5#2	VSS	1.72204e-17	$X=13.177 $Y=2.4855
C1364	I2/avC5#3	VSS	9.2441e-18	$X=12.9745 $Y=2.4855
C1365	I8/avC5#2	VSS	1.58187e-17	$X=13.177 $Y=0.807
C1366	I8/avC5#3	VSS	7.92248e-18	$X=12.9745 $Y=0.8065
C1367	I7/I1/avC3#7	VSS	8.8351e-17	$X=8.352 $Y=8.1245
C1368	I7/I1/avC3#8	VSS	5.44369e-17	$X=7.8865 $Y=8.181
C1369	I7/I2/avC3#7	VSS	8.81977e-17	$X=8.352 $Y=6.64
C1370	I7/I2/avC3#8	VSS	5.68403e-17	$X=7.8865 $Y=6.6025
C1371	RST#24	VSS	1.44474e-17	$X=13.483 $Y=8.2525
C1372	RST#25	VSS	8.59666e-18	$X=13.2785 $Y=8.2485
C1373	RST#27	VSS	6.79178e-18	$X=13.077 $Y=8.25
C1374	RST#28	VSS	6.83761e-18	$X=12.8745 $Y=8.249
C1375	RST#30	VSS	6.94772e-18	$X=12.6725 $Y=8.249
C1376	RST#31	VSS	1.52238e-17	$X=12.471 $Y=8.252
C1377	avC33#2	VSS	9.84983e-18	$X=14.267 $Y=8.2755
C1378	avC34#2	VSS	1.10715e-17	$X=14.8185 $Y=8.2755
C1379	avC31#30	VSS	1.79759e-17	$X=14.816 $Y=6.574
C1380	avC31#31	VSS	7.29803e-18	$X=14.611 $Y=6.572
C1381	avC31#33	VSS	9.08929e-18	$X=14.409 $Y=6.572
C1382	avC31#34	VSS	6.46747e-18	$X=14.2065 $Y=6.572
C1383	avC31#36	VSS	7.07438e-18	$X=14.0045 $Y=6.572
C1384	avC31#37	VSS	1.55257e-17	$X=13.804 $Y=6.573
C1385	I4/avC9#2	VSS	1.86627e-17	$X=15.3495 $Y=5.369
C1386	I4/avC9#3	VSS	9.59616e-18	$X=15.147 $Y=5.3685
C1387	I6/avC9#2	VSS	1.93232e-17	$X=15.3495 $Y=3.6905
C1388	I6/avC9#3	VSS	9.66976e-18	$X=15.147 $Y=3.69
C1389	I2/avC9#2	VSS	1.88947e-17	$X=15.3495 $Y=2.4855
C1390	I2/avC9#3	VSS	1.00184e-17	$X=15.147 $Y=2.4855
C1391	I8/avC9#2	VSS	1.88324e-17	$X=15.3495 $Y=0.807
C1392	I8/avC9#3	VSS	8.57272e-18	$X=15.147 $Y=0.8065
C1393	x_out_b_3#5	VSS	4.22924e-17	$X=10.2265 $Y=5.3595
C1394	x_out_b_2#5	VSS	4.17567e-17	$X=10.2265 $Y=3.6985
C1395	x_out_b_1#5	VSS	4.17676e-17	$X=10.2265 $Y=2.49
C1396	x_out_b_0#5	VSS	4.17567e-17	$X=10.2265 $Y=0.829
C1397	I7/avC12#26	VSS	3.98962e-17	$X=10.6985 $Y=8.2295
C1398	I7/avC11#19	VSS	4.0334e-17	$X=10.6985 $Y=6.5685
C1399	avC36#65	VSS	3.33343e-17	$X=11.1495 $Y=4.9625
C1400	avC36#67	VSS	5.38676e-17	$X=11.15 $Y=5.04
C1401	avC36#68	VSS	5.41248e-17	$X=11.15 $Y=4.019
C1402	avC36#71	VSS	3.33343e-17	$X=11.1495 $Y=2.055
C1403	avC36#73	VSS	5.38676e-17	$X=11.15 $Y=2.147
C1404	avC36#74	VSS	5.41248e-17	$X=11.15 $Y=1.126
C1405	I7/avC12#31	VSS	3.64046e-17	$X=11.1185 $Y=8.0065
C1406	avC33#6	VSS	1.62672e-17	$X=16.2675 $Y=8.2525
C1407	avC33#7	VSS	6.89828e-18	$X=16.0615 $Y=8.249
C1408	avC33#9	VSS	6.89965e-18	$X=15.8595 $Y=8.249
C1409	avC33#10	VSS	6.93304e-18	$X=15.657 $Y=8.249
C1410	avC33#12	VSS	7.11942e-18	$X=15.455 $Y=8.249
C1411	avC33#13	VSS	1.6062e-17	$X=15.2555 $Y=8.252
C1412	avC34#6	VSS	1.74657e-17	$X=16.2675 $Y=6.574
C1413	avC34#7	VSS	6.43843e-18	$X=16.0615 $Y=6.572
C1414	avC34#9	VSS	7.16786e-18	$X=15.8595 $Y=6.572
C1415	avC34#10	VSS	6.56841e-18	$X=15.657 $Y=6.572
C1416	avC34#12	VSS	8.26408e-18	$X=15.455 $Y=6.572
C1417	avC34#13	VSS	1.73916e-17	$X=15.2555 $Y=6.573
C1418	y_out_b_3#2	VSS	9.26268e-18	$X=16.2985 $Y=5.374
C1419	y_out_b_2#2	VSS	9.36511e-18	$X=16.2985 $Y=3.6855
C1420	y_out_b_1#2	VSS	9.30973e-18	$X=16.2985 $Y=2.4735
C1421	y_out_b_0#2	VSS	9.28398e-18	$X=16.2985 $Y=0.7845
C1422	I7/avC5#13	VSS	5.26078e-17	$X=12.1195 $Y=6.5455
C1423	I7/avC5#14	VSS	3.36404e-17	$X=12.202 $Y=6.556
C1424	avC32#37	VSS	4.56603e-17	$X=12.568 $Y=5.3475
C1425	avC32#39	VSS	4.29791e-17	$X=12.572 $Y=5.4325
C1426	avC32#41	VSS	4.42401e-17	$X=12.572 $Y=3.627
C1427	avC32#42	VSS	4.53844e-17	$X=12.568 $Y=3.7115
C1428	avC32#43	VSS	4.56603e-17	$X=12.568 $Y=2.452
C1429	avC32#45	VSS	4.39582e-17	$X=12.572 $Y=2.528
C1430	avC32#47	VSS	4.32688e-17	$X=12.572 $Y=0.723
C1431	avC32#48	VSS	4.53844e-17	$X=12.568 $Y=0.816
C1432	I7/avC4#13	VSS	3.29673e-17	$X=12.7065 $Y=6.6255
C1433	I7/avC4#14	VSS	5.25306e-17	$X=12.7765 $Y=6.6155
C1434	I4/avC3#6	VSS	8.82839e-17	$X=13.51 $Y=5.272
C1435	I4/avC3#7	VSS	6.2171e-17	$X=13.0625 $Y=5.3185
C1436	I6/avC3#6	VSS	8.87153e-17	$X=13.51 $Y=3.7875
C1437	I6/avC3#7	VSS	6.20979e-17	$X=13.0625 $Y=3.74
C1438	I2/avC3#6	VSS	8.82866e-17	$X=13.51 $Y=2.4195
C1439	I2/avC3#7	VSS	6.23952e-17	$X=13.0625 $Y=2.456
C1440	I8/avC3#6	VSS	8.87037e-17	$X=13.51 $Y=0.935
C1441	I8/avC3#7	VSS	6.17566e-17	$X=13.0625 $Y=0.8775
C1442	y_out_b_3#5	VSS	4.18044e-17	$X=15.888 $Y=5.3595
C1443	y_out_b_2#5	VSS	4.20632e-17	$X=15.888 $Y=3.6985
C1444	y_out_b_1#5	VSS	4.20728e-17	$X=15.888 $Y=2.49
C1445	y_out_b_0#5	VSS	4.18045e-17	$X=15.888 $Y=0.829
C1446	VDD#14	VSS	2.96871e-17	$X=16.133 $Y=7.281
C1447	VDD#15	VSS	5.30575e-17	$X=15.693 $Y=7.248
C1448	VDD#18	VSS	2.84126e-17	$X=14.9805 $Y=7.285
C1449	VDD#19	VSS	3.64751e-17	$X=14.8145 $Y=7.3065
C1450	VDD#20	VSS	2.2464e-17	$X=14.614 $Y=7.371
C1451	VDD#21	VSS	4.05729e-17	$X=14.3975 $Y=7.286
C1452	VDD#23	VSS	9.07564e-17	$X=13.935 $Y=7.2215
C1453	VDD#24	VSS	3.0284e-17	$X=13.621 $Y=7.292
C1454	VDD#39	VSS	6.1081e-17	$X=13.1195 $Y=7.35
C1455	VDD#40	VSS	5.93291e-17	$X=12.9825 $Y=7.2615
C1456	VDD#46	VSS	4.85692e-17	$X=12.7035 $Y=7.2805
C1457	VDD#48	VSS	5.8742e-17	$X=12.3195 $Y=7.3115
C1458	VDD#49	VSS	2.6565e-17	$X=12.0885 $Y=7.3065
C1459	VDD#54	VSS	8.39784e-17	$X=11.8175 $Y=7.162
C1460	VDD#59	VSS	7.30727e-17	$X=11.443 $Y=7.3295
C1461	VDD#61	VSS	7.01366e-18	$X=10.9565 $Y=7.37
C1462	VDD#64	VSS	2.85177e-17	$X=10.5245 $Y=7.2895
C1463	VDD#67	VSS	3.47087e-17	$X=10.282 $Y=7.2805
C1464	VDD#70	VSS	5.76092e-17	$X=9.9175 $Y=7.236
C1465	VDD#73	VSS	4.00343e-17	$X=9.4885 $Y=7.2325
C1466	VDD#76	VSS	6.37958e-17	$X=9.208 $Y=7.287
C1467	VDD#80	VSS	3.12383e-17	$X=8.208 $Y=7.2815
C1468	VDD#83	VSS	8.6445e-17	$X=7.783 $Y=7.1035
C1469	VDD#86	VSS	1.43649e-16	$X=7.263 $Y=7.1395
C1470	VDD#90	VSS	1.13925e-16	$X=6.11 $Y=7.1405
C1471	VDD#95	VSS	7.11876e-17	$X=15.77 $Y=4.5295
C1472	VDD#96	VSS	3.461e-17	$X=15.552 $Y=4.529
C1473	VDD#99	VSS	3.2058e-17	$X=15.1935 $Y=4.529
C1474	VDD#100	VSS	4.93711e-17	$X=14.8115 $Y=4.529
C1475	VDD#101	VSS	3.90358e-17	$X=14.3765 $Y=4.529
C1476	VDD#102	VSS	1.07923e-16	$X=13.9125 $Y=4.529
C1477	VDD#104	VSS	2.79856e-17	$X=13.1985 $Y=4.529
C1478	VDD#105	VSS	8.75519e-17	$X=12.438 $Y=4.529
C1479	VDD#106	VSS	1.72443e-16	$X=11.958 $Y=4.529
C1480	VDD#108	VSS	3.68237e-17	$X=10.523 $Y=4.529
C1481	VDD#109	VSS	3.61973e-17	$X=10.08 $Y=4.529
C1482	VDD#110	VSS	2.7829e-17	$X=9.8295 $Y=4.529
C1483	VDD#111	VSS	4.35367e-17	$X=9.4725 $Y=4.529
C1484	VDD#112	VSS	3.03235e-17	$X=9.009 $Y=4.529
C1485	VDD#142	VSS	7.29485e-17	$X=7.8845 $Y=4.529
C1486	VDD#145	VSS	5.42067e-17	$X=7.4905 $Y=4.529
C1487	VDD#149	VSS	2.68549e-16	$X=6.771 $Y=4.529
C1488	VDD#155	VSS	7.11864e-17	$X=15.77 $Y=1.8775
C1489	VDD#156	VSS	3.37893e-17	$X=15.552 $Y=1.7455
C1490	VDD#159	VSS	3.2078e-17	$X=15.1935 $Y=1.821
C1491	VDD#160	VSS	4.93711e-17	$X=14.8115 $Y=1.8225
C1492	VDD#161	VSS	3.87314e-17	$X=14.3765 $Y=1.826
C1493	VDD#162	VSS	1.07923e-16	$X=13.9125 $Y=1.874
C1494	VDD#164	VSS	2.79682e-17	$X=13.1985 $Y=1.758
C1495	VDD#165	VSS	8.75328e-17	$X=12.438 $Y=1.955
C1496	VDD#166	VSS	1.72409e-16	$X=11.958 $Y=2.0045
C1497	VDD#168	VSS	3.68237e-17	$X=10.523 $Y=1.817
C1498	VDD#169	VSS	3.62534e-17	$X=10.08 $Y=1.79
C1499	VDD#170	VSS	2.75556e-17	$X=9.8295 $Y=1.778
C1500	VDD#171	VSS	4.35648e-17	$X=9.4725 $Y=1.8225
C1501	VDD#172	VSS	3.03422e-17	$X=9.009 $Y=1.7825
C1502	VDD#202	VSS	7.29736e-17	$X=7.8845 $Y=1.879
C1503	VDD#205	VSS	5.42704e-17	$X=7.4905 $Y=1.8635
C1504	VDD#209	VSS	2.68601e-16	$X=7.0245 $Y=2.3725
C1505	I7/avC11#26	VSS	1.02642e-16	$X=11.3585 $Y=6.895
C1506	I7/avC14#16	VSS	9.81193e-17	$X=12.5485 $Y=7.177
C1507	I7/avC14#17	VSS	1.4192e-16	$X=11.684 $Y=7.1155
*
*
.ENDS data_reg_bank
*
