*
*
*
*                       LINUX           Fri Nov 29 11:59:24 2024
*
*
*
*  PROGRAM  advgen
*
*  Name           : advgen - Quantus - (64-bit)
*  Version        : 21.1.0-p101
*  Build Date     : Wed Mar 17 18:53:08 PDT 2021
*
*  HSPICE LIBRARY
*
*!LENGTH_UNITS METERS
*
*
*

*
.SUBCKT data_reg_bank VDD VSS CLK RST x_in_0 x_in_1 x_in_2 x_in_3 y_in_0 y_in_1
+ y_in_2 y_in_3 clk_div4_out clk_div4_out_b x_out_0 x_out_1 x_out_2 x_out_3
+ x_out_b_0 x_out_b_1 x_out_b_2 x_out_b_3 y_out_0 y_out_1 y_out_2 y_out_3
+ y_out_b_0 y_out_b_1 y_out_b_2 y_out_b_3
*
*
*  caps2d version: 10
*
*
*       TRANSISTOR CARDS
*
*
MI7/I1/avD2_1	I7/I1/avC5#13	I7/avC6#2	I7/avC12#5	VSS#4
+ nmos1v#20ivpcell#20gpdk045	L=4.5e-08	W=1.2e-07
+ AD=1.68e-14	AS=1.68e-14	PD=5.2e-07	PS=5.2e-07
+ scc=1.376762e-05 scb=3.108630e-03 sca=5.522731e+00 sb=1.4e-07 sa=1.4e-07
MI7/I1/avD2_2	VSS#209	I7/I1/avC3#3	I7/I1/avC5#8	VSS#4
+ nmos1v#20ivpcell#20gpdk045	L=5.7e-07	W=1.2e-07
+ AD=1.68e-14	AS=1.68e-14	PD=5.2e-07	PS=5.2e-07
+ scc=1.329271e-05 scb=2.533884e-03 sca=4.049105e+00 sb=1.4e-07 sa=1.4e-07
MI7/I1/avD2_3	VSS#208	RST#5	I7/I1/avC5#15	VSS#4
+ nmos1v#20ivpcell#20gpdk045	L=4.5e-08	W=1.2e-07
+ AD=1.68e-14	AS=1.68e-14	PD=5.2e-07	PS=5.2e-07
+ scc=1.329271e-05 scb=2.531773e-03 sca=3.763805e+00 sb=1.4e-07 sa=1.4e-07
MI7/I1/avD2_4	I7/I1/avC3#12	I7/I1/avC5#7	VSS#207	VSS#4
+ nmos1v#20ivpcell#20gpdk045	L=4.5e-08	W=2.4e-07
+ AD=3.84e-14	AS=3.84e-14	PD=7.8e-07	PS=7.8e-07
+ scc=6.293884e-05 scb=4.514077e-03 sca=4.851750e+00 sb=3.45e-07 sa=1.4e-07
MI7/I1/avD2_5	VSS#206	I7/I1/avC5	I7/I1/avC3#12	VSS#4
+ nmos1v#20ivpcell#20gpdk045	L=4.5e-08	W=2.4e-07
+ AD=3.36e-14	AS=3.36e-14	PD=7.8e-07	PS=7.8e-07
+ scc=6.293884e-05 scb=4.514077e-03 sca=4.831650e+00 sb=1.4e-07 sa=3.45e-07
MI7/I1/avD2_6	I7/I1/avC9#13	CLK#7	I7/I1/avC3#6	VSS#4
+ nmos1v#20ivpcell#20gpdk045	L=4.5e-08	W=1.2e-07
+ AD=1.68e-14	AS=1.68e-14	PD=5.2e-07	PS=5.2e-07
+ scc=1.329271e-05 scb=2.531772e-03 sca=3.642621e+00 sb=1.4e-07 sa=1.4e-07
MI7/I1/avD2_7	VSS#205	I7/I1/avC6#3	I7/I1/avC9#8	VSS#4
+ nmos1v#20ivpcell#20gpdk045	L=5.7e-07	W=1.2e-07
+ AD=1.68e-14	AS=1.68e-14	PD=5.2e-07	PS=5.2e-07
+ scc=1.329271e-05 scb=2.531772e-03 sca=3.609074e+00 sb=1.4e-07 sa=1.4e-07
MI7/I1/avD2_8	I7/I1/avC6#8	I7/I1/avC9#7	VSS#204	VSS#4
+ nmos1v#20ivpcell#20gpdk045	L=4.5e-08	W=2.4e-07
+ AD=3.84e-14	AS=3.84e-14	PD=7.8e-07	PS=7.8e-07
+ scc=6.293884e-05 scb=4.514077e-03 sca=4.750263e+00 sb=3.45e-07 sa=1.4e-07
MI7/I1/avD2_9	VSS#203	I7/I1/avC9	I7/I1/avC6#8	VSS#4
+ nmos1v#20ivpcell#20gpdk045	L=4.5e-08	W=2.4e-07
+ AD=3.36e-14	AS=3.36e-14	PD=7.8e-07	PS=7.8e-07
+ scc=6.293884e-05 scb=4.514077e-03 sca=4.747084e+00 sb=1.4e-07 sa=3.45e-07
MI7/I1/avD2_10	I7/avC12#29	I7/I1/avC6#4	VSS#202	VSS#4
+ nmos1v#20ivpcell#20gpdk045	L=4.5e-08	W=2.4e-07
+ AD=3.36e-14	AS=3.36e-14	PD=7.6e-07	PS=7.6e-07
+ scc=6.293884e-05 scb=4.514077e-03 sca=4.747084e+00 sb=1.4e-07 sa=1.4e-07
MI7/I1/avD2_11	I7/avC13#17	I7/avC12#14	VSS#201	VSS#4
+ nmos1v#20ivpcell#20gpdk045	L=4.5e-08	W=2.4e-07
+ AD=3.36e-14	AS=3.36e-14	PD=7.6e-07	PS=7.6e-07
+ scc=6.293884e-05 scb=4.514077e-03 sca=4.747084e+00 sb=1.4e-07 sa=1.4e-07
MI7/I2/avD2_1	I7/I2/avC5#12	I7/avC12#2	I7/avC11#3	VSS#4
+ nmos1v#20ivpcell#20gpdk045	L=4.5e-08	W=1.2e-07
+ AD=1.68e-14	AS=1.68e-14	PD=5.2e-07	PS=5.2e-07
+ scc=4.749125e-07 scb=5.768575e-04 sca=2.189808e+00 sb=1.4e-07 sa=1.4e-07
MI7/I2/avD2_2	VSS#75	I7/I2/avC3#2	I7/I2/avC5#8	VSS#4
+ nmos1v#20ivpcell#20gpdk045	L=5.7e-07	W=1.2e-07
+ AD=1.68e-14	AS=1.68e-14	PD=5.2e-07	PS=5.2e-07
+ scc=9.814598e-12 scb=2.111303e-06 sca=7.161817e-01 sb=1.4e-07 sa=1.4e-07
MI7/I2/avD2_3	VSS#72	RST#7	I7/I2/avC5#15	VSS#4
+ nmos1v#20ivpcell#20gpdk045	L=4.5e-08	W=1.2e-07
+ AD=1.68e-14	AS=1.68e-14	PD=5.2e-07	PS=5.2e-07
+ scc=3.335863e-19 scb=8.497321e-10 sca=4.308817e-01 sb=1.4e-07 sa=1.4e-07
MI7/I2/avD2_4	I7/I2/avC3#9	I7/I2/avC5#6	VSS#70	VSS#4
+ nmos1v#20ivpcell#20gpdk045	L=4.5e-08	W=2.4e-07
+ AD=3.84e-14	AS=3.84e-14	PD=7.8e-07	PS=7.8e-07
+ scc=4.669431e-23 scb=1.406638e-11 sca=3.555750e-01 sb=3.45e-07 sa=1.4e-07
MI7/I2/avD2_5	VSS#69	I7/I2/avC5#5	I7/I2/avC3#9	VSS#4
+ nmos1v#20ivpcell#20gpdk045	L=4.5e-08	W=2.4e-07
+ AD=3.36e-14	AS=3.36e-14	PD=7.8e-07	PS=7.8e-07
+ scc=1.030740e-23 scb=5.631719e-12 sca=3.354752e-01 sb=1.4e-07 sa=3.45e-07
MI7/I2/avD2_6	I7/I2/avC9#12	I7/avC13#4	I7/I2/avC3#10	VSS#4
+ nmos1v#20ivpcell#20gpdk045	L=4.5e-08	W=1.2e-07
+ AD=1.68e-14	AS=1.68e-14	PD=5.2e-07	PS=5.2e-07
+ scc=1.762048e-23 scb=6.514790e-12 sca=3.096974e-01 sb=1.4e-07 sa=1.4e-07
MI7/I2/avD2_7	VSS#66	I7/I2/avC6#2	I7/I2/avC9#8	VSS#4
+ nmos1v#20ivpcell#20gpdk045	L=5.7e-07	W=1.2e-07
+ AD=1.68e-14	AS=1.68e-14	PD=5.2e-07	PS=5.2e-07
+ scc=1.762042e-23 scb=6.499702e-12 sca=2.761506e-01 sb=1.4e-07 sa=1.4e-07
MI7/I2/avD2_8	I7/I2/avC6#8	I7/I2/avC9#6	VSS#64	VSS#4
+ nmos1v#20ivpcell#20gpdk045	L=4.5e-08	W=2.4e-07
+ AD=3.84e-14	AS=3.84e-14	PD=7.8e-07	PS=7.8e-07
+ scc=9.645532e-24 scb=4.272685e-12 sca=2.540874e-01 sb=3.45e-07 sa=1.4e-07
MI7/I2/avD2_9	VSS#62	I7/I2/avC9#5	I7/I2/avC6#8	VSS#4
+ nmos1v#20ivpcell#20gpdk045	L=4.5e-08	W=2.4e-07
+ AD=3.36e-14	AS=3.36e-14	PD=7.8e-07	PS=7.8e-07
+ scc=9.645532e-24 scb=4.272684e-12 sca=2.509087e-01 sb=1.4e-07 sa=3.45e-07
MI7/I2/avD2_10	I7/avC11#20	I7/I2/avC6#6	VSS#61	VSS#4
+ nmos1v#20ivpcell#20gpdk045	L=4.5e-08	W=2.4e-07
+ AD=3.36e-14	AS=3.36e-14	PD=7.6e-07	PS=7.6e-07
+ scc=9.645532e-24 scb=4.272684e-12 sca=2.509087e-01 sb=1.4e-07 sa=1.4e-07
MI7/I2/avD2_11	I7/avC14#12	I7/avC11#9	VSS#59	VSS#4
+ nmos1v#20ivpcell#20gpdk045	L=4.5e-08	W=2.4e-07
+ AD=3.36e-14	AS=3.36e-14	PD=7.6e-07	PS=7.6e-07
+ scc=9.645532e-24 scb=4.272684e-12 sca=2.509087e-01 sb=1.4e-07 sa=1.4e-07
MI7/I3/avD2_1	I7/avC5#10	I7/avC14#3	VSS#56	VSS#4
+ nmos1v#20ivpcell#20gpdk045	L=4.5e-08	W=1.2e-07
+ AD=1.92e-14	AS=1.92e-14	PD=5.4e-07	PS=5.4e-07
+ scc=1.76204e-23 scb=6.49967e-12 sca=0.257886 sb=3.45e-07 sa=1.4e-07
MI7/I3/avD2_2	VDD#174	I7/avC11#13	I7/avC5#10	VSS#4
+ nmos1v#20ivpcell#20gpdk045	L=4.5e-08	W=1.2e-07
+ AD=1.68e-14	AS=1.68e-14	PD=5.4e-07	PS=5.4e-07
+ scc=1.76204e-23 scb=6.49967e-12 sca=0.261363 sb=1.4e-07 sa=3.45e-07
MI7/I3/avD2_3	I7/avC4#11	I7/avC5#7	VSS#55	VSS#4
+ nmos1v#20ivpcell#20gpdk045	L=4.5e-08	W=2.4e-07
+ AD=3.36e-14	AS=3.36e-14	PD=7.6e-07	PS=7.6e-07
+ scc=9.64553e-24 scb=4.27268e-12 sca=0.264419 sb=1.4e-07 sa=1.4e-07
MI7/I3/avD2_4	VSS#52	I7/avC4#7	I7/avC5#18	VSS#4
+ nmos1v#20ivpcell#20gpdk045	L=4.5e-08	W=2.4e-07
+ AD=3.36e-14	AS=3.36e-14	PD=7.6e-07	PS=7.6e-07
+ scc=9.64553e-24 scb=4.27274e-12 sca=0.277951 sb=1.4e-07 sa=1.4e-07
MI7/I3/avD2_5	I7/avC4#18	I7/avC14#4	VDD#168	VSS#4
+ nmos1v#20ivpcell#20gpdk045	L=4.5e-08	W=1.2e-07
+ AD=1.92e-14	AS=1.92e-14	PD=5.4e-07	PS=5.4e-07
+ scc=1.76204e-23 scb=6.50513e-12 sca=0.304133 sb=3.45e-07 sa=1.4e-07
MI7/I3/avD2_6	VSS#48	I7/avC11#14	I7/avC4#18	VSS#4
+ nmos1v#20ivpcell#20gpdk045	L=4.5e-08	W=1.2e-07
+ AD=1.68e-14	AS=1.68e-14	PD=5.4e-07	PS=5.4e-07
+ scc=1.76209e-23 scb=6.53953e-12 sca=0.315513 sb=1.4e-07 sa=3.45e-07
MI7/avD2_1	I7/avC6#5	CLK#1	VSS#197	VSS#4
+ nmos1v#20ivpcell#20gpdk045	L=4.5e-08	W=1.2e-07
+ AD=1.68e-14	AS=1.68e-14	PD=5.2e-07	PS=5.2e-07
+ scc=0.00190111 scb=0.0273602 sca=22.3266 sb=1.4e-07 sa=1.4e-07
MI7/avD2_2	I7/avC7#7	RST#3	VSS#77	VSS#4
+ nmos1v#20ivpcell#20gpdk045	L=4.5e-08	W=1.2e-07
+ AD=1.68e-14	AS=1.68e-14	PD=5.2e-07	PS=5.2e-07
+ scc=0.00178852 scb=0.0208638 sca=16.6672 sb=1.4e-07 sa=1.4e-07
MI7/avD2_3	avC32#9	I7/avC4	VSS#200	VSS#4
+ nmos1v#20ivpcell#20gpdk045	L=4.5e-08	W=2.4e-07
+ AD=3.36e-14	AS=3.36e-14	PD=7.6e-07	PS=7.6e-07
+ scc=6.29388e-05 scb=0.00451408 sca=4.74732 sb=1.4e-07 sa=1.4e-07
MI7/avD2_4	avC31#10	I7/avC5	VSS#199	VSS#4
+ nmos1v#20ivpcell#20gpdk045	L=4.5e-08	W=2.4e-07
+ AD=3.36e-14	AS=3.36e-14	PD=7.6e-07	PS=7.6e-07
+ scc=6.29388e-05 scb=0.00451408 sca=4.7559 sb=1.4e-07 sa=1.4e-07
MI4/avD2_1	I4/avC5#13	avC35#34	y_in_3#1	VSS#4
+ nmos1v#20ivpcell#20gpdk045	L=4.5e-08	W=1.2e-07
+ AD=1.68e-14	AS=1.68e-14	PD=5.2e-07	PS=5.2e-07
+ scc=3.826238e-30 scb=3.441640e-15 sca=2.019051e-01 sb=1.4e-07 sa=1.4e-07
MI4/avD2_2	VSS#54	I4/avC3#3	I4/avC5#8	VSS#4
+ nmos1v#20ivpcell#20gpdk045	L=5.7e-07	W=1.2e-07
+ AD=1.68e-14	AS=1.68e-14	PD=5.2e-07	PS=5.2e-07
+ scc=3.826238e-30 scb=3.441668e-15 sca=2.028194e-01 sb=1.4e-07 sa=1.4e-07
MI4/avD2_3	VSS#53	avC34#30	I4/avC5#15	VSS#4
+ nmos1v#20ivpcell#20gpdk045	L=4.5e-08	W=1.2e-07
+ AD=1.68e-14	AS=1.68e-14	PD=5.2e-07	PS=5.2e-07
+ scc=3.826277e-30 scb=3.454117e-15 sca=2.237604e-01 sb=1.4e-07 sa=1.4e-07
MI4/avD2_4	I4/avC3#11	I4/avC5#7	VSS#51	VSS#4
+ nmos1v#20ivpcell#20gpdk045	L=4.5e-08	W=2.4e-07
+ AD=3.84e-14	AS=3.84e-14	PD=7.8e-07	PS=7.8e-07
+ scc=2.264554e-29 scb=8.389732e-15 sca=2.430001e-01 sb=3.45e-07 sa=1.4e-07
MI4/avD2_5	VSS#50	I4/avC5	I4/avC3#11	VSS#4
+ nmos1v#20ivpcell#20gpdk045	L=4.5e-08	W=2.4e-07
+ AD=3.36e-14	AS=3.36e-14	PD=7.8e-07	PS=7.8e-07
+ scc=4.386739e-29 scb=1.568716e-14 sca=2.528736e-01 sb=1.4e-07 sa=3.45e-07
MI4/avD2_6	I4/avC9#13	avC36#58	I4/avC3#5	VSS#4
+ nmos1v#20ivpcell#20gpdk045	L=4.5e-08	W=1.2e-07
+ AD=1.68e-14	AS=1.68e-14	PD=5.2e-07	PS=5.2e-07
+ scc=2.035760e-25 scb=7.650766e-13 sca=2.813804e-01 sb=1.4e-07 sa=1.4e-07
MI4/avD2_7	VSS#44	I4/avC6#3	I4/avC9#8	VSS#4
+ nmos1v#20ivpcell#20gpdk045	L=5.7e-07	W=1.2e-07
+ AD=1.68e-14	AS=1.68e-14	PD=5.2e-07	PS=5.2e-07
+ scc=7.192301e-18 scb=2.257152e-09 sca=3.746165e-01 sb=1.4e-07 sa=1.4e-07
MI4/avD2_8	I4/avC6#8	I4/avC9#7	VSS#43	VSS#4
+ nmos1v#20ivpcell#20gpdk045	L=4.5e-08	W=2.4e-07
+ AD=3.84e-14	AS=3.84e-14	PD=7.8e-07	PS=7.8e-07
+ scc=1.868418e-12 scb=1.585163e-06 sca=6.993123e-01 sb=3.45e-07 sa=1.4e-07
MI4/avD2_9	VSS#42	I4/avC9	I4/avC6#8	VSS#4
+ nmos1v#20ivpcell#20gpdk045	L=4.5e-08	W=2.4e-07
+ AD=3.36e-14	AS=3.36e-14	PD=7.8e-07	PS=7.8e-07
+ scc=9.579880e-11 scb=1.046524e-05 sca=9.046715e-01 sb=1.4e-07 sa=3.45e-07
MI4/avD2_10	y_out_b_3#8	I4/avC6#4	VSS#41	VSS#4
+ nmos1v#20ivpcell#20gpdk045	L=4.5e-08	W=2.4e-07
+ AD=3.36e-14	AS=3.36e-14	PD=7.6e-07	PS=7.6e-07
+ scc=6.275053e-07 scb=6.560697e-04 sca=2.222037e+00 sb=1.4e-07 sa=1.4e-07
MI4/avD2_11	y_out_3#1	y_out_b_3#1	VSS#1	VSS#4
+ nmos1v#20ivpcell#20gpdk045	L=4.5e-08	W=2.4e-07
+ AD=3.36e-14	AS=3.36e-14	PD=7.6e-07	PS=7.6e-07
+ scc=2.265936e-03 scb=2.276111e-02 sca=1.883856e+01 sb=1.4e-07 sa=1.4e-07
MI5/avD2_1	I5/avC5#13	avC35#2	x_in_3#1	VSS#4
+ nmos1v#20ivpcell#20gpdk045	L=4.5e-08	W=1.2e-07
+ AD=1.68e-14	AS=1.68e-14	PD=5.2e-07	PS=5.2e-07
+ scc=2.265936e-03 scb=2.276111e-02 sca=1.883640e+01 sb=1.4e-07 sa=1.4e-07
MI5/avD2_2	VSS#76	I5/avC3#3	I5/avC5#8	VSS#4
+ nmos1v#20ivpcell#20gpdk045	L=5.7e-07	W=1.2e-07
+ AD=1.68e-14	AS=1.68e-14	PD=5.2e-07	PS=5.2e-07
+ scc=8.718644e-08 scb=1.582741e-04 sca=1.348470e+00 sb=1.4e-07 sa=1.4e-07
MI5/avD2_3	VSS#74	avC34#2	I5/avC5#15	VSS#4
+ nmos1v#20ivpcell#20gpdk045	L=4.5e-08	W=1.2e-07
+ AD=1.68e-14	AS=1.68e-14	PD=5.2e-07	PS=5.2e-07
+ scc=3.832718e-15 scb=7.975347e-08 sca=5.134903e-01 sb=1.4e-07 sa=1.4e-07
MI5/avD2_4	I5/avC3#12	I5/avC5#7	VSS#73	VSS#4
+ nmos1v#20ivpcell#20gpdk045	L=4.5e-08	W=2.4e-07
+ AD=3.84e-14	AS=3.84e-14	PD=7.8e-07	PS=7.8e-07
+ scc=4.471498e-19 scb=9.729184e-10 sca=3.802787e-01 sb=3.45e-07 sa=1.4e-07
MI5/avD2_5	VSS#71	I5/avC5	I5/avC3#12	VSS#4
+ nmos1v#20ivpcell#20gpdk045	L=4.5e-08	W=2.4e-07
+ AD=3.36e-14	AS=3.36e-14	PD=7.8e-07	PS=7.8e-07
+ scc=8.117321e-21 scb=1.371925e-10 sca=3.443677e-01 sb=1.4e-07 sa=3.45e-07
MI5/avD2_6	I5/avC9#13	avC36#10	I5/avC3#6	VSS#4
+ nmos1v#20ivpcell#20gpdk045	L=4.5e-08	W=1.2e-07
+ AD=1.68e-14	AS=1.68e-14	PD=5.2e-07	PS=5.2e-07
+ scc=8.887085e-25 scb=1.574063e-12 sca=2.877954e-01 sb=1.4e-07 sa=1.4e-07
MI5/avD2_7	VSS#68	I5/avC6#3	I5/avC9#8	VSS#4
+ nmos1v#20ivpcell#20gpdk045	L=5.7e-07	W=1.2e-07
+ AD=1.68e-14	AS=1.68e-14	PD=5.2e-07	PS=5.2e-07
+ scc=1.653617e-29 scb=7.329339e-15 sca=2.383894e-01 sb=1.4e-07 sa=1.4e-07
MI5/avD2_8	I5/avC6#8	I5/avC9#7	VSS#67	VSS#4
+ nmos1v#20ivpcell#20gpdk045	L=4.5e-08	W=2.4e-07
+ AD=3.84e-14	AS=3.84e-14	PD=7.8e-07	PS=7.8e-07
+ scc=2.226569e-29 scb=7.235866e-15 sca=2.172121e-01 sb=3.45e-07 sa=1.4e-07
MI5/avD2_9	VSS#65	I5/avC9	I5/avC6#8	VSS#4
+ nmos1v#20ivpcell#20gpdk045	L=4.5e-08	W=2.4e-07
+ AD=3.36e-14	AS=3.36e-14	PD=7.8e-07	PS=7.8e-07
+ scc=2.226569e-29 scb=7.235391e-15 sca=2.125699e-01 sb=1.4e-07 sa=3.45e-07
MI5/avD2_10	x_out_b_3#8	I5/avC6#4	VSS#63	VSS#4
+ nmos1v#20ivpcell#20gpdk045	L=4.5e-08	W=2.4e-07
+ AD=3.36e-14	AS=3.36e-14	PD=7.6e-07	PS=7.6e-07
+ scc=2.226569e-29 scb=7.235318e-15 sca=2.040674e-01 sb=1.4e-07 sa=1.4e-07
MI5/avD2_11	x_out_3#1	x_out_b_3#1	VSS#60	VSS#4
+ nmos1v#20ivpcell#20gpdk045	L=4.5e-08	W=2.4e-07
+ AD=3.36e-14	AS=3.36e-14	PD=7.6e-07	PS=7.6e-07
+ scc=2.226569e-29 scb=7.235318e-15 sca=2.040674e-01 sb=1.4e-07 sa=1.4e-07
MI2/avD2_1	I2/avC5#13	avC35#38	y_in_1#1	VSS#4
+ nmos1v#20ivpcell#20gpdk045	L=4.5e-08	W=1.2e-07
+ AD=1.68e-14	AS=1.68e-14	PD=5.2e-07	PS=5.2e-07
+ scc=1.762041e-23 scb=6.499665e-12 sca=2.576480e-01 sb=1.4e-07 sa=1.4e-07
MI2/avD2_2	VSS#118	I2/avC3#3	I2/avC5#8	VSS#4
+ nmos1v#20ivpcell#20gpdk045	L=5.7e-07	W=1.2e-07
+ AD=1.68e-14	AS=1.68e-14	PD=5.2e-07	PS=5.2e-07
+ scc=1.762041e-23 scb=6.499665e-12 sca=2.585623e-01 sb=1.4e-07 sa=1.4e-07
MI2/avD2_3	VSS#116	avC34#34	I2/avC5#15	VSS#4
+ nmos1v#20ivpcell#20gpdk045	L=4.5e-08	W=1.2e-07
+ AD=1.68e-14	AS=1.68e-14	PD=5.2e-07	PS=5.2e-07
+ scc=1.762041e-23 scb=6.499677e-12 sca=2.795033e-01 sb=1.4e-07 sa=1.4e-07
MI2/avD2_4	I2/avC3#11	I2/avC5#7	VSS#114	VSS#4
+ nmos1v#20ivpcell#20gpdk045	L=4.5e-08	W=2.4e-07
+ AD=3.84e-14	AS=3.84e-14	PD=7.8e-07	PS=7.8e-07
+ scc=9.645533e-24 scb=4.273838e-12 sca=2.898414e-01 sb=3.45e-07 sa=1.4e-07
MI2/avD2_5	VSS#112	I2/avC5	I2/avC3#11	VSS#4
+ nmos1v#20ivpcell#20gpdk045	L=4.5e-08	W=2.4e-07
+ AD=3.36e-14	AS=3.36e-14	PD=7.8e-07	PS=7.8e-07
+ scc=9.645554e-24 scb=4.281136e-12 sca=2.997149e-01 sb=1.4e-07 sa=3.45e-07
MI2/avD2_6	I2/avC9#13	avC36#62	I2/avC3#5	VSS#4
+ nmos1v#20ivpcell#20gpdk045	L=4.5e-08	W=1.2e-07
+ AD=1.68e-14	AS=1.68e-14	PD=5.2e-07	PS=5.2e-07
+ scc=1.782398e-23 scb=7.261300e-12 sca=3.371233e-01 sb=1.4e-07 sa=1.4e-07
MI2/avD2_7	VSS#110	I2/avC6#3	I2/avC9#8	VSS#4
+ nmos1v#20ivpcell#20gpdk045	L=5.7e-07	W=1.2e-07
+ AD=1.68e-14	AS=1.68e-14	PD=5.2e-07	PS=5.2e-07
+ scc=7.192319e-18 scb=2.263649e-09 sca=4.303594e-01 sb=1.4e-07 sa=1.4e-07
MI2/avD2_8	I2/avC6#8	I2/avC9#7	VSS#108	VSS#4
+ nmos1v#20ivpcell#20gpdk045	L=4.5e-08	W=2.4e-07
+ AD=3.84e-14	AS=3.84e-14	PD=7.8e-07	PS=7.8e-07
+ scc=1.868418e-12 scb=1.585168e-06 sca=7.461536e-01 sb=3.45e-07 sa=1.4e-07
MI2/avD2_9	VSS#106	I2/avC9	I2/avC6#8	VSS#4
+ nmos1v#20ivpcell#20gpdk045	L=4.5e-08	W=2.4e-07
+ AD=3.36e-14	AS=3.36e-14	PD=7.8e-07	PS=7.8e-07
+ scc=9.579880e-11 scb=1.046524e-05 sca=9.515127e-01 sb=1.4e-07 sa=3.45e-07
MI2/avD2_10	y_out_b_1#8	I2/avC6#4	VSS#104	VSS#4
+ nmos1v#20ivpcell#20gpdk045	L=4.5e-08	W=2.4e-07
+ AD=3.36e-14	AS=3.36e-14	PD=7.6e-07	PS=7.6e-07
+ scc=6.275053e-07 scb=6.560697e-04 sca=2.268879e+00 sb=1.4e-07 sa=1.4e-07
MI2/avD2_11	y_out_1#1	y_out_b_1#1	VSS#103	VSS#4
+ nmos1v#20ivpcell#20gpdk045	L=4.5e-08	W=2.4e-07
+ AD=3.36e-14	AS=3.36e-14	PD=7.6e-07	PS=7.6e-07
+ scc=2.265936e-03 scb=2.276111e-02 sca=1.888540e+01 sb=1.4e-07 sa=1.4e-07
MI0/avD2_1	I0/avC5#13	avC35#6	x_in_1#1	VSS#4
+ nmos1v#20ivpcell#20gpdk045	L=4.5e-08	W=1.2e-07
+ AD=1.68e-14	AS=1.68e-14	PD=5.2e-07	PS=5.2e-07
+ scc=2.265936e-03 scb=2.276111e-02 sca=1.889214e+01 sb=1.4e-07 sa=1.4e-07
MI0/avD2_2	VSS#136	I0/avC3#3	I0/avC5#8	VSS#4
+ nmos1v#20ivpcell#20gpdk045	L=5.7e-07	W=1.2e-07
+ AD=1.68e-14	AS=1.68e-14	PD=5.2e-07	PS=5.2e-07
+ scc=8.718644e-08 scb=1.582741e-04 sca=1.404213e+00 sb=1.4e-07 sa=1.4e-07
MI0/avD2_3	VSS#134	avC34#6	I0/avC5#15	VSS#4
+ nmos1v#20ivpcell#20gpdk045	L=4.5e-08	W=1.2e-07
+ AD=1.68e-14	AS=1.68e-14	PD=5.2e-07	PS=5.2e-07
+ scc=3.832718e-15 scb=7.975996e-08 sca=5.692332e-01 sb=1.4e-07 sa=1.4e-07
MI0/avD2_4	I0/avC3#12	I0/avC5#7	VSS#132	VSS#4
+ nmos1v#20ivpcell#20gpdk045	L=4.5e-08	W=2.4e-07
+ AD=3.84e-14	AS=3.84e-14	PD=7.8e-07	PS=7.8e-07
+ scc=4.471594e-19 scb=9.771838e-10 sca=4.271200e-01 sb=3.45e-07 sa=1.4e-07
MI0/avD2_5	VSS#130	I0/avC5	I0/avC3#12	VSS#4
+ nmos1v#20ivpcell#20gpdk045	L=4.5e-08	W=2.4e-07
+ AD=3.36e-14	AS=3.36e-14	PD=7.8e-07	PS=7.8e-07
+ scc=8.126966e-21 scb=1.414580e-10 sca=3.912090e-01 sb=1.4e-07 sa=3.45e-07
MI0/avD2_6	I0/avC9#13	avC36#14	I0/avC3#6	VSS#4
+ nmos1v#20ivpcell#20gpdk045	L=4.5e-08	W=1.2e-07
+ AD=1.68e-14	AS=1.68e-14	PD=5.2e-07	PS=5.2e-07
+ scc=1.850912e-23 scb=8.070286e-12 sca=3.435383e-01 sb=1.4e-07 sa=1.4e-07
MI0/avD2_7	VSS#128	I0/avC6#3	I0/avC9#8	VSS#4
+ nmos1v#20ivpcell#20gpdk045	L=5.7e-07	W=1.2e-07
+ AD=1.68e-14	AS=1.68e-14	PD=5.2e-07	PS=5.2e-07
+ scc=1.762042e-23 scb=6.503553e-12 sca=2.941323e-01 sb=1.4e-07 sa=1.4e-07
MI0/avD2_8	I0/avC6#8	I0/avC9#7	VSS#126	VSS#4
+ nmos1v#20ivpcell#20gpdk045	L=4.5e-08	W=2.4e-07
+ AD=3.84e-14	AS=3.84e-14	PD=7.8e-07	PS=7.8e-07
+ scc=9.645532e-24 scb=4.272685e-12 sca=2.640533e-01 sb=3.45e-07 sa=1.4e-07
MI0/avD2_9	VSS#124	I0/avC9	I0/avC6#8	VSS#4
+ nmos1v#20ivpcell#20gpdk045	L=4.5e-08	W=2.4e-07
+ AD=3.36e-14	AS=3.36e-14	PD=7.8e-07	PS=7.8e-07
+ scc=9.645532e-24 scb=4.272684e-12 sca=2.594112e-01 sb=1.4e-07 sa=3.45e-07
MI0/avD2_10	x_out_b_1#8	I0/avC6#4	VSS#122	VSS#4
+ nmos1v#20ivpcell#20gpdk045	L=4.5e-08	W=2.4e-07
+ AD=3.36e-14	AS=3.36e-14	PD=7.6e-07	PS=7.6e-07
+ scc=9.645532e-24 scb=4.272684e-12 sca=2.509087e-01 sb=1.4e-07 sa=1.4e-07
MI0/avD2_11	x_out_1#1	x_out_b_1#1	VSS#120	VSS#4
+ nmos1v#20ivpcell#20gpdk045	L=4.5e-08	W=2.4e-07
+ AD=3.36e-14	AS=3.36e-14	PD=7.6e-07	PS=7.6e-07
+ scc=9.645532e-24 scb=4.272684e-12 sca=2.509087e-01 sb=1.4e-07 sa=1.4e-07
MI6/avD2_1	I6/avC5#12	avC35#36	y_in_2#3	VSS#4
+ nmos1v#20ivpcell#20gpdk045	L=4.5e-08	W=1.2e-07
+ AD=1.68e-14	AS=1.68e-14	PD=5.2e-07	PS=5.2e-07
+ scc=3.826238e-30 scb=3.441640e-15 sca=2.019051e-01 sb=1.4e-07 sa=1.4e-07
MI6/avD2_2	VSS#119	I6/avC3#2	I6/avC5#8	VSS#4
+ nmos1v#20ivpcell#20gpdk045	L=5.7e-07	W=1.2e-07
+ AD=1.68e-14	AS=1.68e-14	PD=5.2e-07	PS=5.2e-07
+ scc=3.826238e-30 scb=3.441668e-15 sca=2.028194e-01 sb=1.4e-07 sa=1.4e-07
MI6/avD2_3	VSS#117	avC34#32	I6/avC5#15	VSS#4
+ nmos1v#20ivpcell#20gpdk045	L=4.5e-08	W=1.2e-07
+ AD=1.68e-14	AS=1.68e-14	PD=5.2e-07	PS=5.2e-07
+ scc=3.826277e-30 scb=3.454117e-15 sca=2.237604e-01 sb=1.4e-07 sa=1.4e-07
MI6/avD2_4	I6/avC3#8	I6/avC5#6	VSS#115	VSS#4
+ nmos1v#20ivpcell#20gpdk045	L=4.5e-08	W=2.4e-07
+ AD=3.84e-14	AS=3.84e-14	PD=7.8e-07	PS=7.8e-07
+ scc=2.264554e-29 scb=8.389732e-15 sca=2.430001e-01 sb=3.45e-07 sa=1.4e-07
MI6/avD2_5	VSS#113	I6/avC5#5	I6/avC3#8	VSS#4
+ nmos1v#20ivpcell#20gpdk045	L=4.5e-08	W=2.4e-07
+ AD=3.36e-14	AS=3.36e-14	PD=7.8e-07	PS=7.8e-07
+ scc=4.386739e-29 scb=1.568716e-14 sca=2.528736e-01 sb=1.4e-07 sa=3.45e-07
MI6/avD2_6	I6/avC9#12	avC36#60	I6/avC3#9	VSS#4
+ nmos1v#20ivpcell#20gpdk045	L=4.5e-08	W=1.2e-07
+ AD=1.68e-14	AS=1.68e-14	PD=5.2e-07	PS=5.2e-07
+ scc=2.035760e-25 scb=7.650766e-13 sca=2.813804e-01 sb=1.4e-07 sa=1.4e-07
MI6/avD2_7	VSS#111	I6/avC6#2	I6/avC9#8	VSS#4
+ nmos1v#20ivpcell#20gpdk045	L=5.7e-07	W=1.2e-07
+ AD=1.68e-14	AS=1.68e-14	PD=5.2e-07	PS=5.2e-07
+ scc=7.192301e-18 scb=2.257152e-09 sca=3.746165e-01 sb=1.4e-07 sa=1.4e-07
MI6/avD2_8	I6/avC6#8	I6/avC9#6	VSS#109	VSS#4
+ nmos1v#20ivpcell#20gpdk045	L=4.5e-08	W=2.4e-07
+ AD=3.84e-14	AS=3.84e-14	PD=7.8e-07	PS=7.8e-07
+ scc=1.868418e-12 scb=1.585163e-06 sca=6.993123e-01 sb=3.45e-07 sa=1.4e-07
MI6/avD2_9	VSS#107	I6/avC9#5	I6/avC6#8	VSS#4
+ nmos1v#20ivpcell#20gpdk045	L=4.5e-08	W=2.4e-07
+ AD=3.36e-14	AS=3.36e-14	PD=7.8e-07	PS=7.8e-07
+ scc=9.579880e-11 scb=1.046524e-05 sca=9.046715e-01 sb=1.4e-07 sa=3.45e-07
MI6/avD2_10	y_out_b_2#6	I6/avC6#6	VSS#105	VSS#4
+ nmos1v#20ivpcell#20gpdk045	L=4.5e-08	W=2.4e-07
+ AD=3.36e-14	AS=3.36e-14	PD=7.6e-07	PS=7.6e-07
+ scc=6.275053e-07 scb=6.560697e-04 sca=2.222037e+00 sb=1.4e-07 sa=1.4e-07
MI6/avD2_11	y_out_2#3	y_out_b_2#4	VSS#79	VSS#4
+ nmos1v#20ivpcell#20gpdk045	L=4.5e-08	W=2.4e-07
+ AD=3.36e-14	AS=3.36e-14	PD=7.6e-07	PS=7.6e-07
+ scc=2.265936e-03 scb=2.276111e-02 sca=1.883856e+01 sb=1.4e-07 sa=1.4e-07
MI3/avD2_1	I3/avC5#12	avC35#4	x_in_2#3	VSS#4
+ nmos1v#20ivpcell#20gpdk045	L=4.5e-08	W=1.2e-07
+ AD=1.68e-14	AS=1.68e-14	PD=5.2e-07	PS=5.2e-07
+ scc=2.265936e-03 scb=2.276111e-02 sca=1.883640e+01 sb=1.4e-07 sa=1.4e-07
MI3/avD2_2	VSS#137	I3/avC3#2	I3/avC5#8	VSS#4
+ nmos1v#20ivpcell#20gpdk045	L=5.7e-07	W=1.2e-07
+ AD=1.68e-14	AS=1.68e-14	PD=5.2e-07	PS=5.2e-07
+ scc=8.718644e-08 scb=1.582741e-04 sca=1.348470e+00 sb=1.4e-07 sa=1.4e-07
MI3/avD2_3	VSS#135	avC34#4	I3/avC5#15	VSS#4
+ nmos1v#20ivpcell#20gpdk045	L=4.5e-08	W=1.2e-07
+ AD=1.68e-14	AS=1.68e-14	PD=5.2e-07	PS=5.2e-07
+ scc=3.832718e-15 scb=7.975347e-08 sca=5.134903e-01 sb=1.4e-07 sa=1.4e-07
MI3/avD2_4	I3/avC3#9	I3/avC5#6	VSS#133	VSS#4
+ nmos1v#20ivpcell#20gpdk045	L=4.5e-08	W=2.4e-07
+ AD=3.84e-14	AS=3.84e-14	PD=7.8e-07	PS=7.8e-07
+ scc=4.471498e-19 scb=9.729184e-10 sca=3.802787e-01 sb=3.45e-07 sa=1.4e-07
MI3/avD2_5	VSS#131	I3/avC5#5	I3/avC3#9	VSS#4
+ nmos1v#20ivpcell#20gpdk045	L=4.5e-08	W=2.4e-07
+ AD=3.36e-14	AS=3.36e-14	PD=7.8e-07	PS=7.8e-07
+ scc=8.117321e-21 scb=1.371925e-10 sca=3.443677e-01 sb=1.4e-07 sa=3.45e-07
MI3/avD2_6	I3/avC9#12	avC36#12	I3/avC3#10	VSS#4
+ nmos1v#20ivpcell#20gpdk045	L=4.5e-08	W=1.2e-07
+ AD=1.68e-14	AS=1.68e-14	PD=5.2e-07	PS=5.2e-07
+ scc=8.887085e-25 scb=1.574063e-12 sca=2.877954e-01 sb=1.4e-07 sa=1.4e-07
MI3/avD2_7	VSS#129	I3/avC6#2	I3/avC9#8	VSS#4
+ nmos1v#20ivpcell#20gpdk045	L=5.7e-07	W=1.2e-07
+ AD=1.68e-14	AS=1.68e-14	PD=5.2e-07	PS=5.2e-07
+ scc=1.653617e-29 scb=7.329339e-15 sca=2.383894e-01 sb=1.4e-07 sa=1.4e-07
MI3/avD2_8	I3/avC6#8	I3/avC9#6	VSS#127	VSS#4
+ nmos1v#20ivpcell#20gpdk045	L=4.5e-08	W=2.4e-07
+ AD=3.84e-14	AS=3.84e-14	PD=7.8e-07	PS=7.8e-07
+ scc=2.226569e-29 scb=7.235866e-15 sca=2.172121e-01 sb=3.45e-07 sa=1.4e-07
MI3/avD2_9	VSS#125	I3/avC9#5	I3/avC6#8	VSS#4
+ nmos1v#20ivpcell#20gpdk045	L=4.5e-08	W=2.4e-07
+ AD=3.36e-14	AS=3.36e-14	PD=7.8e-07	PS=7.8e-07
+ scc=2.226569e-29 scb=7.235391e-15 sca=2.125699e-01 sb=1.4e-07 sa=3.45e-07
MI3/avD2_10	x_out_b_2#6	I3/avC6#6	VSS#123	VSS#4
+ nmos1v#20ivpcell#20gpdk045	L=4.5e-08	W=2.4e-07
+ AD=3.36e-14	AS=3.36e-14	PD=7.6e-07	PS=7.6e-07
+ scc=2.226569e-29 scb=7.235318e-15 sca=2.040674e-01 sb=1.4e-07 sa=1.4e-07
MI3/avD2_11	x_out_2#3	x_out_b_2#4	VSS#121	VSS#4
+ nmos1v#20ivpcell#20gpdk045	L=4.5e-08	W=2.4e-07
+ AD=3.36e-14	AS=3.36e-14	PD=7.6e-07	PS=7.6e-07
+ scc=2.226569e-29 scb=7.235318e-15 sca=2.040674e-01 sb=1.4e-07 sa=1.4e-07
MI8/avD2_1	I8/avC5#12	avC35#40	y_in_0#3	VSS#4
+ nmos1v#20ivpcell#20gpdk045	L=4.5e-08	W=1.2e-07
+ AD=1.68e-14	AS=1.68e-14	PD=5.2e-07	PS=5.2e-07
+ scc=1.329271e-05 scb=2.531772e-03 sca=3.590571e+00 sb=1.4e-07 sa=1.4e-07
MI8/avD2_2	VSS#168	I8/avC3#2	I8/avC5#8	VSS#4
+ nmos1v#20ivpcell#20gpdk045	L=5.7e-07	W=1.2e-07
+ AD=1.68e-14	AS=1.68e-14	PD=5.2e-07	PS=5.2e-07
+ scc=1.329271e-05 scb=2.531772e-03 sca=3.591485e+00 sb=1.4e-07 sa=1.4e-07
MI8/avD2_3	VSS#167	avC34#36	I8/avC5#15	VSS#4
+ nmos1v#20ivpcell#20gpdk045	L=4.5e-08	W=1.2e-07
+ AD=1.68e-14	AS=1.68e-14	PD=5.2e-07	PS=5.2e-07
+ scc=1.329271e-05 scb=2.531772e-03 sca=3.612426e+00 sb=1.4e-07 sa=1.4e-07
MI8/avD2_4	I8/avC3#8	I8/avC5#6	VSS#166	VSS#4
+ nmos1v#20ivpcell#20gpdk045	L=4.5e-08	W=2.4e-07
+ AD=3.84e-14	AS=3.84e-14	PD=7.8e-07	PS=7.8e-07
+ scc=6.293884e-05 scb=4.514077e-03 sca=4.786017e+00 sb=3.45e-07 sa=1.4e-07
MI8/avD2_5	VSS#165	I8/avC5#5	I8/avC3#8	VSS#4
+ nmos1v#20ivpcell#20gpdk045	L=4.5e-08	W=2.4e-07
+ AD=3.36e-14	AS=3.36e-14	PD=7.8e-07	PS=7.8e-07
+ scc=6.293884e-05 scb=4.514077e-03 sca=4.795890e+00 sb=1.4e-07 sa=3.45e-07
MI8/avD2_6	I8/avC9#12	avC36#64	I8/avC3#9	VSS#4
+ nmos1v#20ivpcell#20gpdk045	L=4.5e-08	W=1.2e-07
+ AD=1.68e-14	AS=1.68e-14	PD=5.2e-07	PS=5.2e-07
+ scc=1.329271e-05 scb=2.531772e-03 sca=3.670046e+00 sb=1.4e-07 sa=1.4e-07
MI8/avD2_7	VSS#164	I8/avC6#2	I8/avC9#8	VSS#4
+ nmos1v#20ivpcell#20gpdk045	L=5.7e-07	W=1.2e-07
+ AD=1.68e-14	AS=1.68e-14	PD=5.2e-07	PS=5.2e-07
+ scc=1.329271e-05 scb=2.531775e-03 sca=3.763283e+00 sb=1.4e-07 sa=1.4e-07
MI8/avD2_8	I8/avC6#8	I8/avC9#6	VSS#163	VSS#4
+ nmos1v#20ivpcell#20gpdk045	L=4.5e-08	W=2.4e-07
+ AD=3.84e-14	AS=3.84e-14	PD=7.8e-07	PS=7.8e-07
+ scc=6.293884e-05 scb=4.515663e-03 sca=5.242329e+00 sb=3.45e-07 sa=1.4e-07
MI8/avD2_9	VSS#162	I8/avC9#5	I8/avC6#8	VSS#4
+ nmos1v#20ivpcell#20gpdk045	L=4.5e-08	W=2.4e-07
+ AD=3.36e-14	AS=3.36e-14	PD=7.8e-07	PS=7.8e-07
+ scc=6.293894e-05 scb=4.524543e-03 sca=5.447688e+00 sb=1.4e-07 sa=3.45e-07
MI8/avD2_10	y_out_b_0#6	I8/avC6#6	VSS#161	VSS#4
+ nmos1v#20ivpcell#20gpdk045	L=4.5e-08	W=2.4e-07
+ AD=3.36e-14	AS=3.36e-14	PD=7.6e-07	PS=7.6e-07
+ scc=6.356635e-05 scb=5.170147e-03 sca=6.765054e+00 sb=1.4e-07 sa=1.4e-07
MI8/avD2_11	y_out_0#3	y_out_b_0#4	VSS#138	VSS#4
+ nmos1v#20ivpcell#20gpdk045	L=4.5e-08	W=2.4e-07
+ AD=3.36e-14	AS=3.36e-14	PD=7.6e-07	PS=7.6e-07
+ scc=2.328875e-03 scb=2.727519e-02 sca=2.338158e+01 sb=1.4e-07 sa=1.4e-07
MI1/avD2_1	I1/avC5#12	avC35#8	x_in_0#3	VSS#4
+ nmos1v#20ivpcell#20gpdk045	L=4.5e-08	W=1.2e-07
+ AD=1.68e-14	AS=1.68e-14	PD=5.2e-07	PS=5.2e-07
+ scc=2.279229e-03 scb=2.529289e-02 sca=2.222506e+01 sb=1.4e-07 sa=1.4e-07
MI1/avD2_2	VSS#177	I1/avC3#2	I1/avC5#8	VSS#4
+ nmos1v#20ivpcell#20gpdk045	L=5.7e-07	W=1.2e-07
+ AD=1.68e-14	AS=1.68e-14	PD=5.2e-07	PS=5.2e-07
+ scc=1.337989e-05 scb=2.690046e-03 sca=4.737136e+00 sb=1.4e-07 sa=1.4e-07
MI1/avD2_3	VSS#176	avC34#8	I1/avC5#15	VSS#4
+ nmos1v#20ivpcell#20gpdk045	L=4.5e-08	W=1.2e-07
+ AD=1.68e-14	AS=1.68e-14	PD=5.2e-07	PS=5.2e-07
+ scc=1.329271e-05 scb=2.531852e-03 sca=3.902156e+00 sb=1.4e-07 sa=1.4e-07
MI1/avD2_4	I1/avC3#9	I1/avC5#6	VSS#175	VSS#4
+ nmos1v#20ivpcell#20gpdk045	L=4.5e-08	W=2.4e-07
+ AD=3.84e-14	AS=3.84e-14	PD=7.8e-07	PS=7.8e-07
+ scc=6.293884e-05 scb=4.514078e-03 sca=4.923295e+00 sb=3.45e-07 sa=1.4e-07
MI1/avD2_5	VSS#174	I1/avC5#5	I1/avC3#9	VSS#4
+ nmos1v#20ivpcell#20gpdk045	L=4.5e-08	W=2.4e-07
+ AD=3.36e-14	AS=3.36e-14	PD=7.8e-07	PS=7.8e-07
+ scc=6.293884e-05 scb=4.514078e-03 sca=4.887384e+00 sb=1.4e-07 sa=3.45e-07
MI1/avD2_6	I1/avC9#12	avC36#16	I1/avC3#10	VSS#4
+ nmos1v#20ivpcell#20gpdk045	L=4.5e-08	W=1.2e-07
+ AD=1.68e-14	AS=1.68e-14	PD=5.2e-07	PS=5.2e-07
+ scc=1.329271e-05 scb=2.531772e-03 sca=3.676461e+00 sb=1.4e-07 sa=1.4e-07
MI1/avD2_7	VSS#173	I1/avC6#2	I1/avC9#8	VSS#4
+ nmos1v#20ivpcell#20gpdk045	L=5.7e-07	W=1.2e-07
+ AD=1.68e-14	AS=1.68e-14	PD=5.2e-07	PS=5.2e-07
+ scc=1.329271e-05 scb=2.531772e-03 sca=3.627055e+00 sb=1.4e-07 sa=1.4e-07
MI1/avD2_8	I1/avC6#8	I1/avC9#6	VSS#172	VSS#4
+ nmos1v#20ivpcell#20gpdk045	L=4.5e-08	W=2.4e-07
+ AD=3.84e-14	AS=3.84e-14	PD=7.8e-07	PS=7.8e-07
+ scc=6.293884e-05 scb=4.514077e-03 sca=4.760229e+00 sb=3.45e-07 sa=1.4e-07
MI1/avD2_9	VSS#171	I1/avC9#5	I1/avC6#8	VSS#4
+ nmos1v#20ivpcell#20gpdk045	L=4.5e-08	W=2.4e-07
+ AD=3.36e-14	AS=3.36e-14	PD=7.8e-07	PS=7.8e-07
+ scc=6.293884e-05 scb=4.514077e-03 sca=4.755586e+00 sb=1.4e-07 sa=3.45e-07
MI1/avD2_10	x_out_b_0#6	I1/avC6#6	VSS#170	VSS#4
+ nmos1v#20ivpcell#20gpdk045	L=4.5e-08	W=2.4e-07
+ AD=3.36e-14	AS=3.36e-14	PD=7.6e-07	PS=7.6e-07
+ scc=6.293884e-05 scb=4.514077e-03 sca=4.747084e+00 sb=1.4e-07 sa=1.4e-07
MI1/avD2_11	x_out_0#3	x_out_b_0#4	VSS#169	VSS#4
+ nmos1v#20ivpcell#20gpdk045	L=4.5e-08	W=2.4e-07
+ AD=3.36e-14	AS=3.36e-14	PD=7.6e-07	PS=7.6e-07
+ scc=6.293884e-05 scb=4.514077e-03 sca=4.747084e+00 sb=1.4e-07 sa=1.4e-07
MavD2_1	avC33#34	RST#26	VSS#47	VSS#4	nmos1v#20ivpcell#20gpdk045
+ L=4.5e-08	W=2.4e-07
+ AD=3.36e-14	AS=3.36e-14	PD=7.6e-07	PS=7.6e-07
+ scc=1.43636e-23 scb=7.83665e-12 sca=0.344716 sb=1.4e-07 sa=1.4e-07
MavD2_2	avC34#51	avC33#24	VSS#46	VSS#4
+ nmos1v#20ivpcell#20gpdk045	L=4.5e-08	W=1.2e-07
+ AD=1.68e-14	AS=1.68e-14	PD=5.2e-07	PS=5.2e-07
+ scc=4.28471e-20 scb=3.15884e-10 sca=0.411662 sb=1.4e-07 sa=1.4e-07
MavD2_3	clk_div4_out_b#2	avC31	VSS#198	VSS#4
+ nmos1v#20ivpcell#20gpdk045	L=4.5e-08	W=2.4e-07
+ AD=3.36e-14	AS=3.36e-14	PD=7.6e-07	PS=7.6e-07
+ scc=6.29388e-05 scb=0.0045141 sca=5.01357 sb=1.4e-07 sa=1.4e-07
MavD2_4	avC35#75	avC31#8	VSS#45	VSS#4
+ nmos1v#20ivpcell#20gpdk045	L=4.5e-08	W=2.4e-07
+ AD=3.36e-14	AS=3.36e-14	PD=7.6e-07	PS=7.6e-07
+ scc=3.7247e-16 scb=2.57354e-08 sca=0.517399 sb=1.4e-07 sa=1.4e-07
MavD2_5	clk_div4_out#1	avC32	VSS#178	VSS#4
+ nmos1v#20ivpcell#20gpdk045	L=4.5e-08	W=2.4e-07
+ AD=3.36e-14	AS=3.36e-14	PD=7.6e-07	PS=7.6e-07
+ scc=0.000792389 scb=0.0192447 sca=15.6965 sb=1.4e-07 sa=1.4e-07
MavD2_6	avC36#91	avC32#8	VSS#40	VSS#4
+ nmos1v#20ivpcell#20gpdk045	L=4.5e-08	W=2.4e-07
+ AD=3.36e-14	AS=3.36e-14	PD=7.6e-07	PS=7.6e-07
+ scc=0.00072945 scb=0.0147306 sca=11.2003 sb=1.4e-07 sa=1.4e-07
MI7/I1/avD10_1	I7/I1/avC5#12	CLK#5	I7/avC12#7	VDD#135
+ pmos1v#20ivpcell#20gpdk045	L=4.5e-08	W=1.2e-07
+ AD=1.68e-14	AS=1.68e-14	PD=5.2e-07	PS=5.2e-07
+ scc=1.954050e-05 scb=3.579814e-03 sca=6.652430e+00 sb=1.4e-07 sa=1.4e-07
MI7/I1/avD10_2	VDD#193	I7/I1/avC3#2	I7/I1/avC5#9	VDD#135
+ pmos1v#20ivpcell#20gpdk045	L=1.8e-07	W=1.2e-07
+ AD=1.68e-14	AS=1.68e-14	PD=5.2e-07	PS=5.2e-07
+ scc=7.077254e-03 scb=3.177220e-02 sca=4.663852e+01 sb=1.4e-07 sa=1.4e-07
MI7/I1/avD10_3	I7/I1/avC3#9	I7/I1/avC5#6	VDD#191	VDD#135
+ pmos1v#20ivpcell#20gpdk045	L=4.5e-08	W=4.8e-07
+ AD=7.68e-14	AS=7.68e-14	PD=1.26e-06	PS=1.26e-06
+ scc=2.114013e-03 scb=1.490969e-02 sca=1.810101e+01 sb=3.45e-07 sa=1.4e-07
MI7/I1/avD10_4	VDD#189	I7/I1/avC5#5	I7/I1/avC3#9	VDD#135
+ pmos1v#20ivpcell#20gpdk045	L=4.5e-08	W=4.8e-07
+ AD=6.72e-14	AS=6.72e-14	PD=1.26e-06	PS=1.26e-06
+ scc=2.114013e-03 scb=1.490969e-02 sca=1.808091e+01 sb=1.4e-07 sa=3.45e-07
MI7/I1/avD10_5	I7/I1/avC9#12	I7/avC6#4	I7/I1/avC3#11	VDD#135
+ pmos1v#20ivpcell#20gpdk045	L=4.5e-08	W=1.2e-07
+ AD=1.68e-14	AS=1.68e-14	PD=5.2e-07	PS=5.2e-07
+ scc=1.906559e-05 scb=3.002957e-03 sca=4.772319e+00 sb=1.4e-07 sa=1.4e-07
MI7/I1/avD10_6	VDD#187	I7/I1/avC6#2	I7/I1/avC9#9	VDD#135
+ pmos1v#20ivpcell#20gpdk045	L=1.8e-07	W=1.2e-07
+ AD=1.68e-14	AS=1.68e-14	PD=5.2e-07	PS=5.2e-07
+ scc=7.077254e-03 scb=3.176675e-02 sca=4.605801e+01 sb=1.4e-07 sa=1.4e-07
MI7/I1/avD10_7	I7/I1/avC9#15	I7/avC7	VDD#185	VDD#135
+ pmos1v#20ivpcell#20gpdk045	L=4.5e-08	W=1.2e-07
+ AD=1.68e-14	AS=1.68e-14	PD=5.2e-07	PS=5.2e-07
+ scc=7.077254e-03 scb=3.176675e-02 sca=4.604343e+01 sb=1.4e-07 sa=1.4e-07
MI7/I1/avD10_8	I7/I1/avC6#10	I7/I1/avC9#6	VDD#183	VDD#135
+ pmos1v#20ivpcell#20gpdk045	L=4.5e-08	W=4.8e-07
+ AD=7.68e-14	AS=7.68e-14	PD=1.26e-06	PS=1.26e-06
+ scc=2.114013e-03 scb=1.490969e-02 sca=1.799952e+01 sb=3.45e-07 sa=1.4e-07
MI7/I1/avD10_9	VDD#181	I7/I1/avC9#5	I7/I1/avC6#10	VDD#135
+ pmos1v#20ivpcell#20gpdk045	L=4.5e-08	W=4.8e-07
+ AD=6.72e-14	AS=6.72e-14	PD=1.26e-06	PS=1.26e-06
+ scc=2.114013e-03 scb=1.490969e-02 sca=1.799634e+01 sb=1.4e-07 sa=3.45e-07
MI7/I1/avD10_10	I7/avC12#28	I7/I1/avC6#6	VDD#179	VDD#135
+ pmos1v#20ivpcell#20gpdk045	L=4.5e-08	W=4.8e-07
+ AD=6.72e-14	AS=6.72e-14	PD=1.24e-06	PS=1.24e-06
+ scc=2.114013e-03 scb=1.490969e-02 sca=1.799634e+01 sb=1.4e-07 sa=1.4e-07
MI7/I1/avD10_11	I7/avC13#19	I7/avC12#17	VDD#177	VDD#135
+ pmos1v#20ivpcell#20gpdk045	L=4.5e-08	W=4.8e-07
+ AD=6.72e-14	AS=6.72e-14	PD=1.24e-06	PS=1.24e-06
+ scc=2.114013e-03 scb=1.490969e-02 sca=1.799634e+01 sb=1.4e-07 sa=1.4e-07
MI7/I2/avD10_1	I7/I2/avC5#13	I7/avC13#2	I7/avC11	VDD#135
+ pmos1v#20ivpcell#20gpdk045	L=4.5e-08	W=1.2e-07
+ AD=1.68e-14	AS=1.68e-14	PD=5.2e-07	PS=5.2e-07
+ scc=1.954050e-05 scb=3.579814e-03 sca=6.652430e+00 sb=1.4e-07 sa=1.4e-07
MI7/I2/avD10_2	VDD#192	I7/I2/avC3#3	I7/I2/avC5#9	VDD#135
+ pmos1v#20ivpcell#20gpdk045	L=1.8e-07	W=1.2e-07
+ AD=1.68e-14	AS=1.68e-14	PD=5.2e-07	PS=5.2e-07
+ scc=7.077254e-03 scb=3.177220e-02 sca=4.663852e+01 sb=1.4e-07 sa=1.4e-07
MI7/I2/avD10_3	I7/I2/avC3#11	I7/I2/avC5#7	VDD#190	VDD#135
+ pmos1v#20ivpcell#20gpdk045	L=4.5e-08	W=4.8e-07
+ AD=7.68e-14	AS=7.68e-14	PD=1.26e-06	PS=1.26e-06
+ scc=2.114013e-03 scb=1.490969e-02 sca=1.810101e+01 sb=3.45e-07 sa=1.4e-07
MI7/I2/avD10_4	VDD#188	I7/I2/avC5	I7/I2/avC3#11	VDD#135
+ pmos1v#20ivpcell#20gpdk045	L=4.5e-08	W=4.8e-07
+ AD=6.72e-14	AS=6.72e-14	PD=1.26e-06	PS=1.26e-06
+ scc=2.114013e-03 scb=1.490969e-02 sca=1.808091e+01 sb=1.4e-07 sa=3.45e-07
MI7/I2/avD10_5	I7/I2/avC9#13	I7/avC12#4	I7/I2/avC3#6	VDD#135
+ pmos1v#20ivpcell#20gpdk045	L=4.5e-08	W=1.2e-07
+ AD=1.68e-14	AS=1.68e-14	PD=5.2e-07	PS=5.2e-07
+ scc=1.906559e-05 scb=3.002957e-03 sca=4.772319e+00 sb=1.4e-07 sa=1.4e-07
MI7/I2/avD10_6	VDD#186	I7/I2/avC6#3	I7/I2/avC9#9	VDD#135
+ pmos1v#20ivpcell#20gpdk045	L=1.8e-07	W=1.2e-07
+ AD=1.68e-14	AS=1.68e-14	PD=5.2e-07	PS=5.2e-07
+ scc=7.077254e-03 scb=3.176675e-02 sca=4.605801e+01 sb=1.4e-07 sa=1.4e-07
MI7/I2/avD10_7	I7/I2/avC9#15	I7/avC7#3	VDD#184	VDD#135
+ pmos1v#20ivpcell#20gpdk045	L=4.5e-08	W=1.2e-07
+ AD=1.68e-14	AS=1.68e-14	PD=5.2e-07	PS=5.2e-07
+ scc=7.077254e-03 scb=3.176675e-02 sca=4.604343e+01 sb=1.4e-07 sa=1.4e-07
MI7/I2/avD10_8	I7/I2/avC6#10	I7/I2/avC9#7	VDD#182	VDD#135
+ pmos1v#20ivpcell#20gpdk045	L=4.5e-08	W=4.8e-07
+ AD=7.68e-14	AS=7.68e-14	PD=1.26e-06	PS=1.26e-06
+ scc=2.114013e-03 scb=1.490969e-02 sca=1.799952e+01 sb=3.45e-07 sa=1.4e-07
MI7/I2/avD10_9	VDD#180	I7/I2/avC9	I7/I2/avC6#10	VDD#135
+ pmos1v#20ivpcell#20gpdk045	L=4.5e-08	W=4.8e-07
+ AD=6.72e-14	AS=6.72e-14	PD=1.26e-06	PS=1.26e-06
+ scc=2.114013e-03 scb=1.490969e-02 sca=1.799634e+01 sb=1.4e-07 sa=3.45e-07
MI7/I2/avD10_10	I7/avC11#22	I7/I2/avC6#4	VDD#178	VDD#135
+ pmos1v#20ivpcell#20gpdk045	L=4.5e-08	W=4.8e-07
+ AD=6.72e-14	AS=6.72e-14	PD=1.24e-06	PS=1.24e-06
+ scc=2.114013e-03 scb=1.490969e-02 sca=1.799634e+01 sb=1.4e-07 sa=1.4e-07
MI7/I2/avD10_11	I7/avC14#10	I7/avC11#6	VDD#176	VDD#135
+ pmos1v#20ivpcell#20gpdk045	L=4.5e-08	W=4.8e-07
+ AD=6.72e-14	AS=6.72e-14	PD=1.24e-06	PS=1.24e-06
+ scc=2.114013e-03 scb=1.490969e-02 sca=1.799634e+01 sb=1.4e-07 sa=1.4e-07
MI7/I3/avD10_1	I7/avC5#8	I7/avC11#10	VSS#58	VDD#135
+ pmos1v#20ivpcell#20gpdk045	L=4.5e-08	W=2.4e-07
+ AD=3.84e-14	AS=3.84e-14	PD=7.8e-07	PS=7.8e-07
+ scc=0.00219428 scb=0.0196485 sca=18.5758 sb=3.45e-07 sa=1.4e-07
MI7/I3/avD10_2	VDD#172	I7/avC14#2	I7/avC5#8	VDD#135
+ pmos1v#20ivpcell#20gpdk045	L=4.5e-08	W=2.4e-07
+ AD=3.36e-14	AS=3.36e-14	PD=7.8e-07	PS=7.8e-07
+ scc=0.00219428 scb=0.0196485 sca=18.5793 sb=1.4e-07 sa=3.45e-07
MI7/I3/avD10_3	I7/avC4#9	I7/avC5#5	VDD#170	VDD#135
+ pmos1v#20ivpcell#20gpdk045	L=4.5e-08	W=4.8e-07
+ AD=6.72e-14	AS=6.72e-14	PD=1.24e-06	PS=1.24e-06
+ scc=0.00211401 scb=0.0149097 sca=18.0099 sb=1.4e-07 sa=1.4e-07
MI7/I3/avD10_4	VDD#169	I7/avC4#5	I7/avC5#16	VDD#135
+ pmos1v#20ivpcell#20gpdk045	L=4.5e-08	W=4.8e-07
+ AD=6.72e-14	AS=6.72e-14	PD=1.24e-06	PS=1.24e-06
+ scc=0.00211401 scb=0.0149097 sca=18.0234 sb=1.4e-07 sa=1.4e-07
MI7/I3/avD10_5	I7/avC4#16	I7/avC11#15	VDD#166	VDD#135
+ pmos1v#20ivpcell#20gpdk045	L=4.5e-08	W=2.4e-07
+ AD=3.84e-14	AS=3.84e-14	PD=7.8e-07	PS=7.8e-07
+ scc=0.00219428 scb=0.0196485 sca=18.622 sb=3.45e-07 sa=1.4e-07
MI7/I3/avD10_6	VSS#78	I7/avC14#6	I7/avC4#16	VDD#135
+ pmos1v#20ivpcell#20gpdk045	L=4.5e-08	W=2.4e-07
+ AD=3.36e-14	AS=3.36e-14	PD=7.8e-07	PS=7.8e-07
+ scc=0.00219428 scb=0.0196485 sca=18.6334 sb=1.4e-07 sa=3.45e-07
MI7/I10/avD10_1	avC31#9	I7/avC5#4	VDD#171	VDD#135
+ pmos1v#20ivpcell#20gpdk045	L=4.5e-08	W=4.8e-07
+ AD=6.72e-14	AS=6.72e-14	PD=1.24e-06	PS=1.24e-06
+ scc=2.114013e-03 scb=1.490969e-02 sca=1.800516e+01 sb=1.4e-07 sa=1.4e-07
MI7/I9/avD10_1	avC32#10	I7/avC4#4	VDD#175	VDD#135
+ pmos1v#20ivpcell#20gpdk045	L=4.5e-08	W=4.8e-07
+ AD=6.72e-14	AS=6.72e-14	PD=1.24e-06	PS=1.24e-06
+ scc=2.114013e-03 scb=1.490969e-02 sca=1.799658e+01 sb=1.4e-07 sa=1.4e-07
MI7/avD10_1	I7/avC7#5	RST#1	VDD#160	VDD#135
+ pmos1v#20ivpcell#20gpdk045	L=4.5e-08	W=2.4e-07
+ AD=3.36e-14	AS=3.36e-14	PD=7.6e-07	PS=7.6e-07
+ scc=0.00187781 scb=0.0261429 sca=22.378 sb=1.4e-07 sa=1.4e-07
MI7/avD10_2	I7/avC6#7	CLK#3	VDD#194	VDD#135
+ pmos1v#20ivpcell#20gpdk045	L=4.5e-08	W=2.4e-07
+ AD=3.36e-14	AS=3.36e-14	PD=7.6e-07	PS=7.6e-07
+ scc=0.00187781 scb=0.0261429 sca=22.378 sb=1.4e-07 sa=1.4e-07
MI4/avD10_1	I4/avC5#12	avC36#42	y_in_3#3	VDD#16
+ pmos1v#20ivpcell#20gpdk045	L=4.5e-08	W=1.2e-07
+ AD=1.68e-14	AS=1.68e-14	PD=5.2e-07	PS=5.2e-07
+ scc=1.906559e-05 scb=3.002957e-03 sca=4.720270e+00 sb=1.4e-07 sa=1.4e-07
MI4/avD10_2	VDD#49	I4/avC3#2	I4/avC5#9	VDD#16
+ pmos1v#20ivpcell#20gpdk045	L=1.8e-07	W=1.2e-07
+ AD=1.68e-14	AS=1.68e-14	PD=5.2e-07	PS=5.2e-07
+ scc=7.077254e-03 scb=3.176675e-02 sca=4.603072e+01 sb=1.4e-07 sa=1.4e-07
MI4/avD10_3	I4/avC3#8	I4/avC5#6	VDD#47	VDD#16
+ pmos1v#20ivpcell#20gpdk045	L=4.5e-08	W=4.8e-07
+ AD=7.68e-14	AS=7.68e-14	PD=1.26e-06	PS=1.26e-06
+ scc=2.114013e-03 scb=1.490969e-02 sca=1.803527e+01 sb=3.45e-07 sa=1.4e-07
MI4/avD10_4	VDD#45	I4/avC5#5	I4/avC3#8	VDD#16
+ pmos1v#20ivpcell#20gpdk045	L=4.5e-08	W=4.8e-07
+ AD=6.72e-14	AS=6.72e-14	PD=1.26e-06	PS=1.26e-06
+ scc=2.114013e-03 scb=1.490969e-02 sca=1.804515e+01 sb=1.4e-07 sa=3.45e-07
MI4/avD10_5	I4/avC9#12	avC35#50	I4/avC3#10	VDD#16
+ pmos1v#20ivpcell#20gpdk045	L=4.5e-08	W=1.2e-07
+ AD=1.68e-14	AS=1.68e-14	PD=5.2e-07	PS=5.2e-07
+ scc=1.906559e-05 scb=3.002957e-03 sca=4.799745e+00 sb=1.4e-07 sa=1.4e-07
MI4/avD10_6	VDD#43	I4/avC6#2	I4/avC9#9	VDD#16
+ pmos1v#20ivpcell#20gpdk045	L=1.8e-07	W=1.2e-07
+ AD=1.68e-14	AS=1.68e-14	PD=5.2e-07	PS=5.2e-07
+ scc=7.077254e-03 scb=3.176675e-02 sca=4.616902e+01 sb=1.4e-07 sa=1.4e-07
MI4/avD10_7	I4/avC9#15	avC33#25	VDD#41	VDD#16
+ pmos1v#20ivpcell#20gpdk045	L=4.5e-08	W=1.2e-07
+ AD=1.68e-14	AS=1.68e-14	PD=5.2e-07	PS=5.2e-07
+ scc=7.077254e-03 scb=3.176675e-02 sca=4.628885e+01 sb=1.4e-07 sa=1.4e-07
MI4/avD10_8	I4/avC6#10	I4/avC9#6	VDD#39	VDD#16
+ pmos1v#20ivpcell#20gpdk045	L=4.5e-08	W=4.8e-07
+ AD=7.68e-14	AS=7.68e-14	PD=1.26e-06	PS=1.26e-06
+ scc=2.114013e-03 scb=1.491127e-02 sca=1.849159e+01 sb=3.45e-07 sa=1.4e-07
MI4/avD10_9	VDD#37	I4/avC9#5	I4/avC6#10	VDD#16
+ pmos1v#20ivpcell#20gpdk045	L=4.5e-08	W=4.8e-07
+ AD=6.72e-14	AS=6.72e-14	PD=1.26e-06	PS=1.26e-06
+ scc=2.114013e-03 scb=1.492015e-02 sca=1.869695e+01 sb=1.4e-07 sa=3.45e-07
MI4/avD10_10	y_out_b_3#7	I4/avC6#6	VDD#35	VDD#16
+ pmos1v#20ivpcell#20gpdk045	L=4.5e-08	W=4.8e-07
+ AD=6.72e-14	AS=6.72e-14	PD=1.24e-06	PS=1.24e-06
+ scc=2.114640e-03 scb=1.556576e-02 sca=2.001431e+01 sb=1.4e-07 sa=1.4e-07
MI4/avD10_11	y_out_3#3	y_out_b_3#4	VDD#13	VDD#16
+ pmos1v#20ivpcell#20gpdk045	L=4.5e-08	W=4.8e-07
+ AD=6.72e-14	AS=6.72e-14	PD=1.24e-06	PS=1.24e-06
+ scc=4.379948e-03 scb=3.767080e-02 sca=3.663083e+01 sb=1.4e-07 sa=1.4e-07
MI5/avD10_1	I5/avC5#12	avC36#2	x_in_3#3	VDD#16
+ pmos1v#20ivpcell#20gpdk045	L=4.5e-08	W=1.2e-07
+ AD=1.68e-14	AS=1.68e-14	PD=5.2e-07	PS=5.2e-07
+ scc=2.285001e-03 scb=2.576407e-02 sca=2.335476e+01 sb=1.4e-07 sa=1.4e-07
MI5/avD10_2	VDD#72	I5/avC3#2	I5/avC5#9	VDD#16
+ pmos1v#20ivpcell#20gpdk045	L=1.8e-07	W=1.2e-07
+ AD=1.68e-14	AS=1.68e-14	PD=5.2e-07	PS=5.2e-07
+ scc=7.077521e-03 scb=3.216819e-02 sca=4.772270e+01 sb=1.4e-07 sa=1.4e-07
MI5/avD10_3	I5/avC3#9	I5/avC5#6	VDD#70	VDD#16
+ pmos1v#20ivpcell#20gpdk045	L=4.5e-08	W=4.8e-07
+ AD=7.68e-14	AS=7.68e-14	PD=1.26e-06	PS=1.26e-06
+ scc=2.114013e-03 scb=1.490969e-02 sca=1.817255e+01 sb=3.45e-07 sa=1.4e-07
MI5/avD10_4	VDD#66	I5/avC5#5	I5/avC3#9	VDD#16
+ pmos1v#20ivpcell#20gpdk045	L=4.5e-08	W=4.8e-07
+ AD=6.72e-14	AS=6.72e-14	PD=1.26e-06	PS=1.26e-06
+ scc=2.114013e-03 scb=1.490969e-02 sca=1.813664e+01 sb=1.4e-07 sa=3.45e-07
MI5/avD10_5	I5/avC9#12	avC35#10	I5/avC3#11	VDD#16
+ pmos1v#20ivpcell#20gpdk045	L=4.5e-08	W=1.2e-07
+ AD=1.68e-14	AS=1.68e-14	PD=5.2e-07	PS=5.2e-07
+ scc=1.906559e-05 scb=3.002957e-03 sca=4.806160e+00 sb=1.4e-07 sa=1.4e-07
MI5/avD10_6	VDD#63	I5/avC6#2	I5/avC9#9	VDD#16
+ pmos1v#20ivpcell#20gpdk045	L=1.8e-07	W=1.2e-07
+ AD=1.68e-14	AS=1.68e-14	PD=5.2e-07	PS=5.2e-07
+ scc=7.077254e-03 scb=3.176675e-02 sca=4.607888e+01 sb=1.4e-07 sa=1.4e-07
MI5/avD10_7	I5/avC9#15	avC33	VDD#59	VDD#16
+ pmos1v#20ivpcell#20gpdk045	L=4.5e-08	W=1.2e-07
+ AD=1.68e-14	AS=1.68e-14	PD=5.2e-07	PS=5.2e-07
+ scc=7.077254e-03 scb=3.176675e-02 sca=4.605718e+01 sb=1.4e-07 sa=1.4e-07
MI5/avD10_8	I5/avC6#10	I5/avC9#6	VDD#57	VDD#16
+ pmos1v#20ivpcell#20gpdk045	L=4.5e-08	W=4.8e-07
+ AD=7.68e-14	AS=7.68e-14	PD=1.26e-06	PS=1.26e-06
+ scc=2.114013e-03 scb=1.490969e-02 sca=1.800949e+01 sb=3.45e-07 sa=1.4e-07
MI5/avD10_9	VDD#55	I5/avC9#5	I5/avC6#10	VDD#16
+ pmos1v#20ivpcell#20gpdk045	L=4.5e-08	W=4.8e-07
+ AD=6.72e-14	AS=6.72e-14	PD=1.26e-06	PS=1.26e-06
+ scc=2.114013e-03 scb=1.490969e-02 sca=1.800484e+01 sb=1.4e-07 sa=3.45e-07
MI5/avD10_10	x_out_b_3#7	I5/avC6#6	VDD#53	VDD#16
+ pmos1v#20ivpcell#20gpdk045	L=4.5e-08	W=4.8e-07
+ AD=6.72e-14	AS=6.72e-14	PD=1.24e-06	PS=1.24e-06
+ scc=2.114013e-03 scb=1.490969e-02 sca=1.799634e+01 sb=1.4e-07 sa=1.4e-07
MI5/avD10_11	x_out_3#3	x_out_b_3#4	VDD#51	VDD#16
+ pmos1v#20ivpcell#20gpdk045	L=4.5e-08	W=4.8e-07
+ AD=6.72e-14	AS=6.72e-14	PD=1.24e-06	PS=1.24e-06
+ scc=2.114013e-03 scb=1.490969e-02 sca=1.799634e+01 sb=1.4e-07 sa=1.4e-07
MI2/avD10_1	I2/avC5#12	avC36#46	y_in_1#3	VDD#76
+ pmos1v#20ivpcell#20gpdk045	L=4.5e-08	W=1.2e-07
+ AD=1.68e-14	AS=1.68e-14	PD=5.2e-07	PS=5.2e-07
+ scc=1.906559e-05 scb=3.002957e-03 sca=4.720270e+00 sb=1.4e-07 sa=1.4e-07
MI2/avD10_2	VDD#109	I2/avC3#2	I2/avC5#9	VDD#76
+ pmos1v#20ivpcell#20gpdk045	L=1.8e-07	W=1.2e-07
+ AD=1.68e-14	AS=1.68e-14	PD=5.2e-07	PS=5.2e-07
+ scc=7.077254e-03 scb=3.176675e-02 sca=4.603072e+01 sb=1.4e-07 sa=1.4e-07
MI2/avD10_3	I2/avC3#8	I2/avC5#6	VDD#107	VDD#76
+ pmos1v#20ivpcell#20gpdk045	L=4.5e-08	W=4.8e-07
+ AD=7.68e-14	AS=7.68e-14	PD=1.26e-06	PS=1.26e-06
+ scc=2.114013e-03 scb=1.490969e-02 sca=1.803527e+01 sb=3.45e-07 sa=1.4e-07
MI2/avD10_4	VDD#105	I2/avC5#5	I2/avC3#8	VDD#76
+ pmos1v#20ivpcell#20gpdk045	L=4.5e-08	W=4.8e-07
+ AD=6.72e-14	AS=6.72e-14	PD=1.26e-06	PS=1.26e-06
+ scc=2.114013e-03 scb=1.490969e-02 sca=1.804515e+01 sb=1.4e-07 sa=3.45e-07
MI2/avD10_5	I2/avC9#12	avC35#54	I2/avC3#10	VDD#76
+ pmos1v#20ivpcell#20gpdk045	L=4.5e-08	W=1.2e-07
+ AD=1.68e-14	AS=1.68e-14	PD=5.2e-07	PS=5.2e-07
+ scc=1.906559e-05 scb=3.002957e-03 sca=4.799745e+00 sb=1.4e-07 sa=1.4e-07
MI2/avD10_6	VDD#103	I2/avC6#2	I2/avC9#9	VDD#76
+ pmos1v#20ivpcell#20gpdk045	L=1.8e-07	W=1.2e-07
+ AD=1.68e-14	AS=1.68e-14	PD=5.2e-07	PS=5.2e-07
+ scc=7.077254e-03 scb=3.176675e-02 sca=4.616902e+01 sb=1.4e-07 sa=1.4e-07
MI2/avD10_7	I2/avC9#15	avC33#29	VDD#101	VDD#76
+ pmos1v#20ivpcell#20gpdk045	L=4.5e-08	W=1.2e-07
+ AD=1.68e-14	AS=1.68e-14	PD=5.2e-07	PS=5.2e-07
+ scc=7.077254e-03 scb=3.176675e-02 sca=4.628885e+01 sb=1.4e-07 sa=1.4e-07
MI2/avD10_8	I2/avC6#10	I2/avC9#6	VDD#99	VDD#76
+ pmos1v#20ivpcell#20gpdk045	L=4.5e-08	W=4.8e-07
+ AD=7.68e-14	AS=7.68e-14	PD=1.26e-06	PS=1.26e-06
+ scc=2.114013e-03 scb=1.491127e-02 sca=1.849159e+01 sb=3.45e-07 sa=1.4e-07
MI2/avD10_9	VDD#97	I2/avC9#5	I2/avC6#10	VDD#76
+ pmos1v#20ivpcell#20gpdk045	L=4.5e-08	W=4.8e-07
+ AD=6.72e-14	AS=6.72e-14	PD=1.26e-06	PS=1.26e-06
+ scc=2.114013e-03 scb=1.492015e-02 sca=1.869695e+01 sb=1.4e-07 sa=3.45e-07
MI2/avD10_10	y_out_b_1#7	I2/avC6#6	VDD#95	VDD#76
+ pmos1v#20ivpcell#20gpdk045	L=4.5e-08	W=4.8e-07
+ AD=6.72e-14	AS=6.72e-14	PD=1.24e-06	PS=1.24e-06
+ scc=2.114640e-03 scb=1.556576e-02 sca=2.001431e+01 sb=1.4e-07 sa=1.4e-07
MI2/avD10_11	y_out_1#3	y_out_b_1#4	VDD#73	VDD#76
+ pmos1v#20ivpcell#20gpdk045	L=4.5e-08	W=4.8e-07
+ AD=6.72e-14	AS=6.72e-14	PD=1.24e-06	PS=1.24e-06
+ scc=4.379948e-03 scb=3.767080e-02 sca=3.663083e+01 sb=1.4e-07 sa=1.4e-07
MI0/avD10_1	I0/avC5#12	avC36#6	x_in_1#3	VDD#76
+ pmos1v#20ivpcell#20gpdk045	L=4.5e-08	W=1.2e-07
+ AD=1.68e-14	AS=1.68e-14	PD=5.2e-07	PS=5.2e-07
+ scc=2.285001e-03 scb=2.576407e-02 sca=2.335476e+01 sb=1.4e-07 sa=1.4e-07
MI0/avD10_2	VDD#132	I0/avC3#2	I0/avC5#9	VDD#76
+ pmos1v#20ivpcell#20gpdk045	L=1.8e-07	W=1.2e-07
+ AD=1.68e-14	AS=1.68e-14	PD=5.2e-07	PS=5.2e-07
+ scc=7.077521e-03 scb=3.216819e-02 sca=4.772270e+01 sb=1.4e-07 sa=1.4e-07
MI0/avD10_3	I0/avC3#9	I0/avC5#6	VDD#130	VDD#76
+ pmos1v#20ivpcell#20gpdk045	L=4.5e-08	W=4.8e-07
+ AD=7.68e-14	AS=7.68e-14	PD=1.26e-06	PS=1.26e-06
+ scc=2.114013e-03 scb=1.490969e-02 sca=1.817255e+01 sb=3.45e-07 sa=1.4e-07
MI0/avD10_4	VDD#126	I0/avC5#5	I0/avC3#9	VDD#76
+ pmos1v#20ivpcell#20gpdk045	L=4.5e-08	W=4.8e-07
+ AD=6.72e-14	AS=6.72e-14	PD=1.26e-06	PS=1.26e-06
+ scc=2.114013e-03 scb=1.490969e-02 sca=1.813664e+01 sb=1.4e-07 sa=3.45e-07
MI0/avD10_5	I0/avC9#12	avC35#14	I0/avC3#11	VDD#76
+ pmos1v#20ivpcell#20gpdk045	L=4.5e-08	W=1.2e-07
+ AD=1.68e-14	AS=1.68e-14	PD=5.2e-07	PS=5.2e-07
+ scc=1.906559e-05 scb=3.002957e-03 sca=4.806160e+00 sb=1.4e-07 sa=1.4e-07
MI0/avD10_6	VDD#123	I0/avC6#2	I0/avC9#9	VDD#76
+ pmos1v#20ivpcell#20gpdk045	L=1.8e-07	W=1.2e-07
+ AD=1.68e-14	AS=1.68e-14	PD=5.2e-07	PS=5.2e-07
+ scc=7.077254e-03 scb=3.176675e-02 sca=4.607888e+01 sb=1.4e-07 sa=1.4e-07
MI0/avD10_7	I0/avC9#15	avC33#5	VDD#119	VDD#76
+ pmos1v#20ivpcell#20gpdk045	L=4.5e-08	W=1.2e-07
+ AD=1.68e-14	AS=1.68e-14	PD=5.2e-07	PS=5.2e-07
+ scc=7.077254e-03 scb=3.176675e-02 sca=4.605718e+01 sb=1.4e-07 sa=1.4e-07
MI0/avD10_8	I0/avC6#10	I0/avC9#6	VDD#117	VDD#76
+ pmos1v#20ivpcell#20gpdk045	L=4.5e-08	W=4.8e-07
+ AD=7.68e-14	AS=7.68e-14	PD=1.26e-06	PS=1.26e-06
+ scc=2.114013e-03 scb=1.490969e-02 sca=1.800949e+01 sb=3.45e-07 sa=1.4e-07
MI0/avD10_9	VDD#115	I0/avC9#5	I0/avC6#10	VDD#76
+ pmos1v#20ivpcell#20gpdk045	L=4.5e-08	W=4.8e-07
+ AD=6.72e-14	AS=6.72e-14	PD=1.26e-06	PS=1.26e-06
+ scc=2.114013e-03 scb=1.490969e-02 sca=1.800484e+01 sb=1.4e-07 sa=3.45e-07
MI0/avD10_10	x_out_b_1#7	I0/avC6#6	VDD#113	VDD#76
+ pmos1v#20ivpcell#20gpdk045	L=4.5e-08	W=4.8e-07
+ AD=6.72e-14	AS=6.72e-14	PD=1.24e-06	PS=1.24e-06
+ scc=2.114013e-03 scb=1.490969e-02 sca=1.799634e+01 sb=1.4e-07 sa=1.4e-07
MI0/avD10_11	x_out_1#3	x_out_b_1#4	VDD#111	VDD#76
+ pmos1v#20ivpcell#20gpdk045	L=4.5e-08	W=4.8e-07
+ AD=6.72e-14	AS=6.72e-14	PD=1.24e-06	PS=1.24e-06
+ scc=2.114013e-03 scb=1.490969e-02 sca=1.799634e+01 sb=1.4e-07 sa=1.4e-07
MI6/avD10_1	I6/avC5#13	avC36#44	y_in_2#1	VDD#16
+ pmos1v#20ivpcell#20gpdk045	L=4.5e-08	W=1.2e-07
+ AD=1.68e-14	AS=1.68e-14	PD=5.2e-07	PS=5.2e-07
+ scc=1.906559e-05 scb=3.002957e-03 sca=4.720270e+00 sb=1.4e-07 sa=1.4e-07
MI6/avD10_2	VDD#48	I6/avC3#3	I6/avC5#9	VDD#16
+ pmos1v#20ivpcell#20gpdk045	L=1.8e-07	W=1.2e-07
+ AD=1.68e-14	AS=1.68e-14	PD=5.2e-07	PS=5.2e-07
+ scc=7.077254e-03 scb=3.176675e-02 sca=4.603072e+01 sb=1.4e-07 sa=1.4e-07
MI6/avD10_3	I6/avC3#10	I6/avC5#7	VDD#46	VDD#16
+ pmos1v#20ivpcell#20gpdk045	L=4.5e-08	W=4.8e-07
+ AD=7.68e-14	AS=7.68e-14	PD=1.26e-06	PS=1.26e-06
+ scc=2.114013e-03 scb=1.490969e-02 sca=1.803527e+01 sb=3.45e-07 sa=1.4e-07
MI6/avD10_4	VDD#44	I6/avC5	I6/avC3#10	VDD#16
+ pmos1v#20ivpcell#20gpdk045	L=4.5e-08	W=4.8e-07
+ AD=6.72e-14	AS=6.72e-14	PD=1.26e-06	PS=1.26e-06
+ scc=2.114013e-03 scb=1.490969e-02 sca=1.804515e+01 sb=1.4e-07 sa=3.45e-07
MI6/avD10_5	I6/avC9#13	avC35#52	I6/avC3#5	VDD#16
+ pmos1v#20ivpcell#20gpdk045	L=4.5e-08	W=1.2e-07
+ AD=1.68e-14	AS=1.68e-14	PD=5.2e-07	PS=5.2e-07
+ scc=1.906559e-05 scb=3.002957e-03 sca=4.799745e+00 sb=1.4e-07 sa=1.4e-07
MI6/avD10_6	VDD#42	I6/avC6#3	I6/avC9#9	VDD#16
+ pmos1v#20ivpcell#20gpdk045	L=1.8e-07	W=1.2e-07
+ AD=1.68e-14	AS=1.68e-14	PD=5.2e-07	PS=5.2e-07
+ scc=7.077254e-03 scb=3.176675e-02 sca=4.616902e+01 sb=1.4e-07 sa=1.4e-07
MI6/avD10_7	I6/avC9#15	avC33#27	VDD#40	VDD#16
+ pmos1v#20ivpcell#20gpdk045	L=4.5e-08	W=1.2e-07
+ AD=1.68e-14	AS=1.68e-14	PD=5.2e-07	PS=5.2e-07
+ scc=7.077254e-03 scb=3.176675e-02 sca=4.628885e+01 sb=1.4e-07 sa=1.4e-07
MI6/avD10_8	I6/avC6#10	I6/avC9#7	VDD#38	VDD#16
+ pmos1v#20ivpcell#20gpdk045	L=4.5e-08	W=4.8e-07
+ AD=7.68e-14	AS=7.68e-14	PD=1.26e-06	PS=1.26e-06
+ scc=2.114013e-03 scb=1.491127e-02 sca=1.849159e+01 sb=3.45e-07 sa=1.4e-07
MI6/avD10_9	VDD#36	I6/avC9	I6/avC6#10	VDD#16
+ pmos1v#20ivpcell#20gpdk045	L=4.5e-08	W=4.8e-07
+ AD=6.72e-14	AS=6.72e-14	PD=1.26e-06	PS=1.26e-06
+ scc=2.114013e-03 scb=1.492015e-02 sca=1.869695e+01 sb=1.4e-07 sa=3.45e-07
MI6/avD10_10	y_out_b_2#8	I6/avC6#4	VDD#34	VDD#16
+ pmos1v#20ivpcell#20gpdk045	L=4.5e-08	W=4.8e-07
+ AD=6.72e-14	AS=6.72e-14	PD=1.24e-06	PS=1.24e-06
+ scc=2.114640e-03 scb=1.556576e-02 sca=2.001431e+01 sb=1.4e-07 sa=1.4e-07
MI6/avD10_11	y_out_2#1	y_out_b_2#1	VDD#33	VDD#16
+ pmos1v#20ivpcell#20gpdk045	L=4.5e-08	W=4.8e-07
+ AD=6.72e-14	AS=6.72e-14	PD=1.24e-06	PS=1.24e-06
+ scc=4.379948e-03 scb=3.767080e-02 sca=3.663083e+01 sb=1.4e-07 sa=1.4e-07
MI3/avD10_1	I3/avC5#13	avC36#4	x_in_2#1	VDD#16
+ pmos1v#20ivpcell#20gpdk045	L=4.5e-08	W=1.2e-07
+ AD=1.68e-14	AS=1.68e-14	PD=5.2e-07	PS=5.2e-07
+ scc=2.285001e-03 scb=2.576407e-02 sca=2.335476e+01 sb=1.4e-07 sa=1.4e-07
MI3/avD10_2	VDD#69	I3/avC3#3	I3/avC5#9	VDD#16
+ pmos1v#20ivpcell#20gpdk045	L=1.8e-07	W=1.2e-07
+ AD=1.68e-14	AS=1.68e-14	PD=5.2e-07	PS=5.2e-07
+ scc=7.077521e-03 scb=3.216819e-02 sca=4.772270e+01 sb=1.4e-07 sa=1.4e-07
MI3/avD10_3	I3/avC3#11	I3/avC5#7	VDD#65	VDD#16
+ pmos1v#20ivpcell#20gpdk045	L=4.5e-08	W=4.8e-07
+ AD=7.68e-14	AS=7.68e-14	PD=1.26e-06	PS=1.26e-06
+ scc=2.114013e-03 scb=1.490969e-02 sca=1.817255e+01 sb=3.45e-07 sa=1.4e-07
MI3/avD10_4	VDD#62	I3/avC5	I3/avC3#11	VDD#16
+ pmos1v#20ivpcell#20gpdk045	L=4.5e-08	W=4.8e-07
+ AD=6.72e-14	AS=6.72e-14	PD=1.26e-06	PS=1.26e-06
+ scc=2.114013e-03 scb=1.490969e-02 sca=1.813664e+01 sb=1.4e-07 sa=3.45e-07
MI3/avD10_5	I3/avC9#13	avC35#12	I3/avC3#6	VDD#16
+ pmos1v#20ivpcell#20gpdk045	L=4.5e-08	W=1.2e-07
+ AD=1.68e-14	AS=1.68e-14	PD=5.2e-07	PS=5.2e-07
+ scc=1.906559e-05 scb=3.002957e-03 sca=4.806160e+00 sb=1.4e-07 sa=1.4e-07
MI3/avD10_6	VDD#60	I3/avC6#3	I3/avC9#9	VDD#16
+ pmos1v#20ivpcell#20gpdk045	L=1.8e-07	W=1.2e-07
+ AD=1.68e-14	AS=1.68e-14	PD=5.2e-07	PS=5.2e-07
+ scc=7.077254e-03 scb=3.176675e-02 sca=4.607888e+01 sb=1.4e-07 sa=1.4e-07
MI3/avD10_7	I3/avC9#15	avC33#3	VDD#58	VDD#16
+ pmos1v#20ivpcell#20gpdk045	L=4.5e-08	W=1.2e-07
+ AD=1.68e-14	AS=1.68e-14	PD=5.2e-07	PS=5.2e-07
+ scc=7.077254e-03 scb=3.176675e-02 sca=4.605718e+01 sb=1.4e-07 sa=1.4e-07
MI3/avD10_8	I3/avC6#10	I3/avC9#7	VDD#56	VDD#16
+ pmos1v#20ivpcell#20gpdk045	L=4.5e-08	W=4.8e-07
+ AD=7.68e-14	AS=7.68e-14	PD=1.26e-06	PS=1.26e-06
+ scc=2.114013e-03 scb=1.490969e-02 sca=1.800949e+01 sb=3.45e-07 sa=1.4e-07
MI3/avD10_9	VDD#54	I3/avC9	I3/avC6#10	VDD#16
+ pmos1v#20ivpcell#20gpdk045	L=4.5e-08	W=4.8e-07
+ AD=6.72e-14	AS=6.72e-14	PD=1.26e-06	PS=1.26e-06
+ scc=2.114013e-03 scb=1.490969e-02 sca=1.800484e+01 sb=1.4e-07 sa=3.45e-07
MI3/avD10_10	x_out_b_2#8	I3/avC6#4	VDD#52	VDD#16
+ pmos1v#20ivpcell#20gpdk045	L=4.5e-08	W=4.8e-07
+ AD=6.72e-14	AS=6.72e-14	PD=1.24e-06	PS=1.24e-06
+ scc=2.114013e-03 scb=1.490969e-02 sca=1.799634e+01 sb=1.4e-07 sa=1.4e-07
MI3/avD10_11	x_out_2#1	x_out_b_2#1	VDD#50	VDD#16
+ pmos1v#20ivpcell#20gpdk045	L=4.5e-08	W=4.8e-07
+ AD=6.72e-14	AS=6.72e-14	PD=1.24e-06	PS=1.24e-06
+ scc=2.114013e-03 scb=1.490969e-02 sca=1.799634e+01 sb=1.4e-07 sa=1.4e-07
MI8/avD10_1	I8/avC5#13	avC36#48	y_in_0#1	VDD#76
+ pmos1v#20ivpcell#20gpdk045	L=4.5e-08	W=1.2e-07
+ AD=1.68e-14	AS=1.68e-14	PD=5.2e-07	PS=5.2e-07
+ scc=1.906559e-05 scb=3.002957e-03 sca=4.720270e+00 sb=1.4e-07 sa=1.4e-07
MI8/avD10_2	VDD#108	I8/avC3#3	I8/avC5#9	VDD#76
+ pmos1v#20ivpcell#20gpdk045	L=1.8e-07	W=1.2e-07
+ AD=1.68e-14	AS=1.68e-14	PD=5.2e-07	PS=5.2e-07
+ scc=7.077254e-03 scb=3.176675e-02 sca=4.603072e+01 sb=1.4e-07 sa=1.4e-07
MI8/avD10_3	I8/avC3#10	I8/avC5#7	VDD#106	VDD#76
+ pmos1v#20ivpcell#20gpdk045	L=4.5e-08	W=4.8e-07
+ AD=7.68e-14	AS=7.68e-14	PD=1.26e-06	PS=1.26e-06
+ scc=2.114013e-03 scb=1.490969e-02 sca=1.803527e+01 sb=3.45e-07 sa=1.4e-07
MI8/avD10_4	VDD#104	I8/avC5	I8/avC3#10	VDD#76
+ pmos1v#20ivpcell#20gpdk045	L=4.5e-08	W=4.8e-07
+ AD=6.72e-14	AS=6.72e-14	PD=1.26e-06	PS=1.26e-06
+ scc=2.114013e-03 scb=1.490969e-02 sca=1.804515e+01 sb=1.4e-07 sa=3.45e-07
MI8/avD10_5	I8/avC9#13	avC35#56	I8/avC3#5	VDD#76
+ pmos1v#20ivpcell#20gpdk045	L=4.5e-08	W=1.2e-07
+ AD=1.68e-14	AS=1.68e-14	PD=5.2e-07	PS=5.2e-07
+ scc=1.906559e-05 scb=3.002957e-03 sca=4.799745e+00 sb=1.4e-07 sa=1.4e-07
MI8/avD10_6	VDD#102	I8/avC6#3	I8/avC9#9	VDD#76
+ pmos1v#20ivpcell#20gpdk045	L=1.8e-07	W=1.2e-07
+ AD=1.68e-14	AS=1.68e-14	PD=5.2e-07	PS=5.2e-07
+ scc=7.077254e-03 scb=3.176675e-02 sca=4.616902e+01 sb=1.4e-07 sa=1.4e-07
MI8/avD10_7	I8/avC9#15	avC33#31	VDD#100	VDD#76
+ pmos1v#20ivpcell#20gpdk045	L=4.5e-08	W=1.2e-07
+ AD=1.68e-14	AS=1.68e-14	PD=5.2e-07	PS=5.2e-07
+ scc=7.077254e-03 scb=3.176675e-02 sca=4.628885e+01 sb=1.4e-07 sa=1.4e-07
MI8/avD10_8	I8/avC6#10	I8/avC9#7	VDD#98	VDD#76
+ pmos1v#20ivpcell#20gpdk045	L=4.5e-08	W=4.8e-07
+ AD=7.68e-14	AS=7.68e-14	PD=1.26e-06	PS=1.26e-06
+ scc=2.114013e-03 scb=1.491127e-02 sca=1.849159e+01 sb=3.45e-07 sa=1.4e-07
MI8/avD10_9	VDD#96	I8/avC9	I8/avC6#10	VDD#76
+ pmos1v#20ivpcell#20gpdk045	L=4.5e-08	W=4.8e-07
+ AD=6.72e-14	AS=6.72e-14	PD=1.26e-06	PS=1.26e-06
+ scc=2.114013e-03 scb=1.492015e-02 sca=1.869695e+01 sb=1.4e-07 sa=3.45e-07
MI8/avD10_10	y_out_b_0#8	I8/avC6#4	VDD#94	VDD#76
+ pmos1v#20ivpcell#20gpdk045	L=4.5e-08	W=4.8e-07
+ AD=6.72e-14	AS=6.72e-14	PD=1.24e-06	PS=1.24e-06
+ scc=2.114640e-03 scb=1.556576e-02 sca=2.001431e+01 sb=1.4e-07 sa=1.4e-07
MI8/avD10_11	y_out_0#1	y_out_b_0#1	VDD#93	VDD#76
+ pmos1v#20ivpcell#20gpdk045	L=4.5e-08	W=4.8e-07
+ AD=6.72e-14	AS=6.72e-14	PD=1.24e-06	PS=1.24e-06
+ scc=4.379948e-03 scb=3.767080e-02 sca=3.663083e+01 sb=1.4e-07 sa=1.4e-07
MI1/avD10_1	I1/avC5#13	avC36#8	x_in_0#1	VDD#76
+ pmos1v#20ivpcell#20gpdk045	L=4.5e-08	W=1.2e-07
+ AD=1.68e-14	AS=1.68e-14	PD=5.2e-07	PS=5.2e-07
+ scc=2.285001e-03 scb=2.576407e-02 sca=2.335476e+01 sb=1.4e-07 sa=1.4e-07
MI1/avD10_2	VDD#129	I1/avC3#3	I1/avC5#9	VDD#76
+ pmos1v#20ivpcell#20gpdk045	L=1.8e-07	W=1.2e-07
+ AD=1.68e-14	AS=1.68e-14	PD=5.2e-07	PS=5.2e-07
+ scc=7.077521e-03 scb=3.216819e-02 sca=4.772270e+01 sb=1.4e-07 sa=1.4e-07
MI1/avD10_3	I1/avC3#11	I1/avC5#7	VDD#125	VDD#76
+ pmos1v#20ivpcell#20gpdk045	L=4.5e-08	W=4.8e-07
+ AD=7.68e-14	AS=7.68e-14	PD=1.26e-06	PS=1.26e-06
+ scc=2.114013e-03 scb=1.490969e-02 sca=1.817255e+01 sb=3.45e-07 sa=1.4e-07
MI1/avD10_4	VDD#122	I1/avC5	I1/avC3#11	VDD#76
+ pmos1v#20ivpcell#20gpdk045	L=4.5e-08	W=4.8e-07
+ AD=6.72e-14	AS=6.72e-14	PD=1.26e-06	PS=1.26e-06
+ scc=2.114013e-03 scb=1.490969e-02 sca=1.813664e+01 sb=1.4e-07 sa=3.45e-07
MI1/avD10_5	I1/avC9#13	avC35#16	I1/avC3#6	VDD#76
+ pmos1v#20ivpcell#20gpdk045	L=4.5e-08	W=1.2e-07
+ AD=1.68e-14	AS=1.68e-14	PD=5.2e-07	PS=5.2e-07
+ scc=1.906559e-05 scb=3.002957e-03 sca=4.806160e+00 sb=1.4e-07 sa=1.4e-07
MI1/avD10_6	VDD#120	I1/avC6#3	I1/avC9#9	VDD#76
+ pmos1v#20ivpcell#20gpdk045	L=1.8e-07	W=1.2e-07
+ AD=1.68e-14	AS=1.68e-14	PD=5.2e-07	PS=5.2e-07
+ scc=7.077254e-03 scb=3.176675e-02 sca=4.607888e+01 sb=1.4e-07 sa=1.4e-07
MI1/avD10_7	I1/avC9#15	avC33#7	VDD#118	VDD#76
+ pmos1v#20ivpcell#20gpdk045	L=4.5e-08	W=1.2e-07
+ AD=1.68e-14	AS=1.68e-14	PD=5.2e-07	PS=5.2e-07
+ scc=7.077254e-03 scb=3.176675e-02 sca=4.605718e+01 sb=1.4e-07 sa=1.4e-07
MI1/avD10_8	I1/avC6#10	I1/avC9#7	VDD#116	VDD#76
+ pmos1v#20ivpcell#20gpdk045	L=4.5e-08	W=4.8e-07
+ AD=7.68e-14	AS=7.68e-14	PD=1.26e-06	PS=1.26e-06
+ scc=2.114013e-03 scb=1.490969e-02 sca=1.800949e+01 sb=3.45e-07 sa=1.4e-07
MI1/avD10_9	VDD#114	I1/avC9	I1/avC6#10	VDD#76
+ pmos1v#20ivpcell#20gpdk045	L=4.5e-08	W=4.8e-07
+ AD=6.72e-14	AS=6.72e-14	PD=1.26e-06	PS=1.26e-06
+ scc=2.114013e-03 scb=1.490969e-02 sca=1.800484e+01 sb=1.4e-07 sa=3.45e-07
MI1/avD10_10	x_out_b_0#8	I1/avC6#4	VDD#112	VDD#76
+ pmos1v#20ivpcell#20gpdk045	L=4.5e-08	W=4.8e-07
+ AD=6.72e-14	AS=6.72e-14	PD=1.24e-06	PS=1.24e-06
+ scc=2.114013e-03 scb=1.490969e-02 sca=1.799634e+01 sb=1.4e-07 sa=1.4e-07
MI1/avD10_11	x_out_0#1	x_out_b_0#1	VDD#110	VDD#76
+ pmos1v#20ivpcell#20gpdk045	L=4.5e-08	W=4.8e-07
+ AD=6.72e-14	AS=6.72e-14	PD=1.24e-06	PS=1.24e-06
+ scc=2.114013e-03 scb=1.490969e-02 sca=1.799634e+01 sb=1.4e-07 sa=1.4e-07
MI17/avD10_1	clk_div4_out#2	avC32#4	VDD#133	VDD#135
+ pmos1v#20ivpcell#20gpdk045	L=4.5e-08	W=4.8e-07
+ AD=6.72e-14	AS=6.72e-14	PD=1.24e-06	PS=1.24e-06
+ scc=2.843463e-03 scb=2.964032e-02 sca=2.894571e+01 sb=1.4e-07 sa=1.4e-07
MI18/avD10_1	clk_div4_out_b#1	avC31#4	VDD#163	VDD#135
+ pmos1v#20ivpcell#20gpdk045	L=4.5e-08	W=4.8e-07
+ AD=6.72e-14	AS=6.72e-14	PD=1.24e-06	PS=1.24e-06
+ scc=2.114013e-03 scb=1.490971e-02 sca=1.826283e+01 sb=1.4e-07 sa=1.4e-07
MI16/avD10_1	avC36#89	avC32#5	VDD#161	VDD#135
+ pmos1v#20ivpcell#20gpdk045	L=4.5e-08	W=4.8e-07
+ AD=6.72e-14	AS=6.72e-14	PD=1.24e-06	PS=1.24e-06
+ scc=2.843463e-03 scb=2.964032e-02 sca=2.894571e+01 sb=1.4e-07 sa=1.4e-07
MI15/avD10_1	avC35#73	avC31#5	VDD#162	VDD#135
+ pmos1v#20ivpcell#20gpdk045	L=4.5e-08	W=4.8e-07
+ AD=6.72e-14	AS=6.72e-14	PD=1.24e-06	PS=1.24e-06
+ scc=2.114013e-03 scb=1.490971e-02 sca=1.826283e+01 sb=1.4e-07 sa=1.4e-07
MI9/avD10_1	avC33#35	RST#23	VDD#165	VDD#135
+ pmos1v#20ivpcell#20gpdk045	L=4.5e-08	W=4.8e-07
+ AD=6.72e-14	AS=6.72e-14	PD=1.24e-06	PS=1.24e-06
+ scc=2.114013e-03 scb=1.490969e-02 sca=1.809015e+01 sb=1.4e-07 sa=1.4e-07
MavD10_1	avC34#49	avC33#21	VDD#164	VDD#135
+ pmos1v#20ivpcell#20gpdk045	L=4.5e-08	W=2.4e-07
+ AD=3.36e-14	AS=3.36e-14	PD=7.6e-07	PS=7.6e-07
+ scc=0.00413873 scb=0.0245402 sca=30.19 sb=1.4e-07 sa=1.4e-07
*
*
*       RESISTOR AND CAP/DIODE CARDS
*
Rd2	VDD	VDD#203	    0.1224	$X=8.43 $Y=3.07
Rd3	VDD	VDD#201	    0.1224	$X=8.43 $Y=5.99
Rd4	VSS	VSS#232	6.119e-02	$X=12.99 $Y=3.877
Rd5	VSS#232	VSS#233	    0.1224	$X=12.99 $Y=1.61
Rd6	VSS	VSS#231	6.119e-02	$X=12.99 $Y=5.183
Rd7	VSS#231	VSS#230	    0.1224	$X=12.99 $Y=7.45
Re1	VDD#201	VDD#198	8.333e-02	$X=8.43 $Y=7.45
Re2	VDD#199	VDD	8.333e-02	$X=8.43 $Y=4.53
Re3	VDD#203	VDD#200	8.333e-02	$X=8.43 $Y=1.61
Re4	VSS#230	VSS#226	8.333e-02	$X=12.99 $Y=8.91
Re5	VSS#227	VSS#231	8.333e-02	$X=12.99 $Y=5.99
Re6	VSS#232	VSS#228	8.333e-02	$X=12.99 $Y=3.07
Re7	VSS#229	VSS#233	8.333e-02	$X=12.99 $Y=0.15
Rf1	VDD#198	VDD#195	8.333e-02	$X=8.43 $Y=7.45
Rf2	VDD#196	VDD#199	8.333e-02	$X=8.43 $Y=4.53
Rf3	VDD#200	VDD#197	8.333e-02	$X=8.43 $Y=1.61
Rf4	VSS#226	VSS#222	8.333e-02	$X=12.99 $Y=8.91
Rf5	VSS#223	VSS#227	8.333e-02	$X=12.99 $Y=5.99
Rf6	VSS#228	VSS#224	8.333e-02	$X=12.99 $Y=3.07
Rf7	VSS#225	VSS#229	8.333e-02	$X=12.99 $Y=0.15
Rg1	VDD#195	VDD#10	8.333e-02	$X=8.43 $Y=7.45
Rg2	VDD#11	VDD#196	8.333e-02	$X=8.43 $Y=4.53
Rg3	VDD#197	VDD#12	8.333e-02	$X=8.43 $Y=1.61
Rg4	VSS#222	VSS#218	8.333e-02	$X=12.99 $Y=8.91
Rg5	VSS#219	VSS#223	8.333e-02	$X=12.99 $Y=5.99
Rg6	VSS#224	VSS#220	8.333e-02	$X=12.99 $Y=3.07
Rg7	VSS#221	VSS#225	8.333e-02	$X=12.99 $Y=0.15
Rh1	x_in_3	x_in_3#5	4.041e-02	$X=5.2605 $Y=5.13
Rh2	x_in_2	x_in_2#4	4.041e-02	$X=5.2605 $Y=3.93
Rh3	x_in_1	x_in_1#5	4.041e-02	$X=5.2605 $Y=2.21
Rh4	x_in_0	x_in_0#4	4.041e-02	$X=5.2605 $Y=1.01
Rh5	VDD#7	VDD#10	8.333e-02	$X=8.43 $Y=7.45
Rh6	VDD#11	VDD#8	8.333e-02	$X=8.43 $Y=4.53
Rh7	VDD#9	VDD#12	8.333e-02	$X=8.43 $Y=1.61
Rh8	I7/avC13#14	I7/avC13#8	    1.7356	$X=8.0175 $Y=7.08
Rh9	I7/avC12#22	I7/avC12#12	    2.6332	$X=8.0525 $Y=6.55
Rh10	I7/avC12#23	I7/avC12#21	    0.7526	$X=10.4375 $Y=7.225
Rh11	y_in_3#4	y_in_3	    1.5312	$X=9.5005 $Y=5.73
Rh12	y_in_2#5	y_in_2	    1.5312	$X=9.5005 $Y=3.33
Rh13	y_in_1#4	y_in_1	    1.5312	$X=9.5005 $Y=2.81
Rh14	y_in_0#5	y_in_0	    1.5312	$X=9.5005 $Y=0.41
Rh15	I7/avC13#16	I7/avC13#13	    0.6552	$X=10.4425 $Y=7.45
Rh16	VSS#218	VSS#214	8.333e-02	$X=12.99 $Y=8.91
Rh17	VSS#215	VSS#219	8.333e-02	$X=12.99 $Y=5.99
Rh18	VSS#220	VSS#216	8.333e-02	$X=12.99 $Y=3.07
Rh19	VSS#217	VSS#221	8.333e-02	$X=12.99 $Y=0.15
Rh20	RST#29	RST#13	    4.1464	$X=9.475 $Y=6.85
Rh21	avC33#41	avC33#10	    3.4562	$X=11.3875 $Y=5.58
Rh22	avC33#42	avC33#11	    3.4562	$X=11.3875 $Y=3.48
Rh23	avC33#43	avC33#14	    3.4562	$X=11.3875 $Y=2.66
Rh24	avC33#48	avC33#15	    2.9562	$X=11.3875 $Y=0.56
Rh25	avC34#61	avC34#57	    1.6055	$X=13.505 $Y=5.43
Rh26	avC34#57	avC34#25	    3.3957	$X=9.7 $Y=5.43
Rh27	avC34#62	avC34#58	    1.6055	$X=13.505 $Y=3.63
Rh28	avC34#58	avC34#26	    3.3957	$X=9.7 $Y=3.63
Rh29	avC34#63	avC34#59	    1.6055	$X=13.505 $Y=2.51
Rh30	avC34#59	avC34#27	    3.3957	$X=9.7 $Y=2.51
Rh31	avC34#64	avC34#60	    1.1055	$X=13.505 $Y=0.71
Rh32	avC34#60	avC34#28	    3.3957	$X=9.7 $Y=0.71
Rh33	avC35#85	avC35#81	    2.2851	$X=13.415 $Y=5.28
Rh34	avC35#81	avC35#29	    3.2063	$X=9.055 $Y=5.28
Rh35	avC35#86	avC35#82	    2.2851	$X=13.415 $Y=3.78
Rh36	avC35#82	avC35#30	    3.2063	$X=9.055 $Y=3.78
Rh37	avC35#87	avC35#83	    2.2851	$X=13.415 $Y=2.36
Rh38	avC35#83	avC35#31	    3.2063	$X=9.055 $Y=2.36
Rh39	avC35#88	avC35#84	    1.7851	$X=13.415 $Y=0.86
Rh40	avC35#84	avC35#32	    3.2063	$X=9.055 $Y=0.86
Rh41	x_out_3#7	x_out_3#5	    2.4191	$X=12.8825 $Y=4.83
Rh42	x_out_2#6	x_out_2#5	    2.4191	$X=12.8825 $Y=4.23
Rh43	x_out_1#7	x_out_1#5	    2.4191	$X=12.8825 $Y=1.91
Rh44	x_out_0#6	x_out_0#5	    2.4191	$X=12.8825 $Y=1.31
Rh45	x_out_b_3#11	x_out_b_3#10	    2.9518	$X=12.9 $Y=5.13
Rh46	x_out_b_2#12	x_out_b_2#10	    2.9518	$X=12.9 $Y=3.93
Rh47	x_out_b_1#11	x_out_b_1#10	    2.9518	$X=12.9 $Y=2.21
Rh48	x_out_b_0#12	x_out_b_0#10	    2.9518	$X=12.9 $Y=1.01
Rh49	avC36#101	avC36#97	    3.0616	$X=14.2725 $Y=4.98
Rh50	avC36#97	avC36#37	    3.0206	$X=9.265 $Y=4.98
Rh51	avC36#102	avC36#98	    3.0616	$X=14.2725 $Y=4.08
Rh52	avC36#98	avC36#38	    3.0206	$X=9.265 $Y=4.08
Rh53	avC36#103	avC36#99	    3.0616	$X=14.2725 $Y=2.06
Rh54	avC36#99	avC36#39	    3.0206	$X=9.265 $Y=2.06
Rh55	avC36#104	avC36#100	    2.5616	$X=14.2725 $Y=1.16
Rh56	avC36#100	avC36#40	    3.0206	$X=9.265 $Y=1.16
Rh57	y_out_3	y_out_3#5	6.123e-02	$X=16.3005 $Y=5.43
Rh58	y_out_2	y_out_2#5	6.123e-02	$X=16.3005 $Y=3.63
Rh59	y_out_1	y_out_1#5	6.123e-02	$X=16.3005 $Y=2.51
Rh60	y_out_0	y_out_0#5	6.123e-02	$X=16.3005 $Y=0.71
Rh61	y_out_b_3	y_out_b_3#10	    0.1362	$X=16.1355 $Y=5.13
Rh62	y_out_b_2	y_out_b_2#10	    0.1362	$X=16.1355 $Y=3.93
Rh63	y_out_b_1	y_out_b_1#10	    0.1362	$X=16.1355 $Y=2.21
Rh64	y_out_b_0	y_out_b_0#10	    0.1362	$X=16.1355 $Y=1.01
Rh65	x_out_b_3	x_out_b_3#12	    0.3089	$X=15.618 $Y=4.83
Rh66	x_out_b_2	x_out_b_2#11	    0.3089	$X=15.618 $Y=4.23
Rh67	x_out_b_1	x_out_b_1#12	    0.3089	$X=15.618 $Y=1.91
Rh68	x_out_b_0	x_out_b_0#11	    0.3089	$X=15.618 $Y=1.31
Rh69	x_out_3	x_out_3#6	    0.3444	$X=15.4605 $Y=5.28
Rh70	x_out_2	x_out_2#7	    0.3444	$X=15.4605 $Y=3.78
Rh71	x_out_1	x_out_1#6	    0.3444	$X=15.4605 $Y=2.36
Rh72	x_out_0	x_out_0#7	    0.3444	$X=15.4605 $Y=0.86
Ri1	x_in_3#4	x_in_3#5	    1.0000	$X=5.2 $Y=5.13
Ri2	x_in_2#4	x_in_2#5	    1.0000	$X=5.2 $Y=3.93
Ri3	x_in_1#4	x_in_1#5	    1.0000	$X=5.2 $Y=2.21
Ri4	x_in_0#4	x_in_0#5	    1.0000	$X=5.2 $Y=1.01
Ri5	RST#12	RST#13	    1.1391	$X=5.26 $Y=6.7125
Ri6	RST#14	RST#15	    1.9849	$X=5.435 $Y=7.475
Ri7	I7/avC7#8	I7/avC7#9	    2.1897	$X=5.585 $Y=7.45
Ri8	I7/avC12#8	I7/avC12#9	    1.2900	$X=5.78 $Y=8.35
Ri9	I7/avC11#4	I7/avC11#5	    1.3195	$X=5.745 $Y=6.55
Ri11	I7/avC12#12	I7/avC12#13	    0.5000	$X=5.93 $Y=6.7
Ri12	avC35#21	avC35#29	    1.0000	$X=6.175 $Y=5.28
Ri13	avC35#30	avC35#23	    1.0000	$X=6.175 $Y=3.78
Ri14	avC35#25	avC35#31	    1.0000	$X=6.175 $Y=2.36
Ri15	avC35#32	avC35#27	    1.0000	$X=6.175 $Y=0.86
Ri16	I7/avC13#8	I7/avC13#9	    1.0000	$X=6.24 $Y=7
Ri17	avC36#37	avC36#29	    1.0000	$X=6.385 $Y=4.98
Ri18	avC36#31	avC36#38	    1.0000	$X=6.385 $Y=4.08
Ri19	avC36#39	avC36#33	    1.0000	$X=6.385 $Y=2.06
Ri20	avC36#35	avC36#40	    1.0000	$X=6.385 $Y=1.16
Ri21	avC34#25	avC34#21	    0.5000	$X=6.82 $Y=5.43
Ri22	avC34#22	avC34#26	    0.5000	$X=6.82 $Y=3.63
Ri23	avC34#27	avC34#23	    0.5000	$X=6.82 $Y=2.51
Ri24	avC34#24	avC34#28	    0.5000	$X=6.82 $Y=0.71
Ri25	VDD#2	VDD#7	8.333e-02	$X=8.43 $Y=7.45
Ri26	VDD#8	VDD#3	8.333e-02	$X=8.43 $Y=4.53
Ri27	VDD#6	VDD#9	8.333e-02	$X=8.43 $Y=1.61
Ri28	avC33#9	avC33#10	    1.0000	$X=8.81 $Y=5.58
Ri29	avC33#11	avC33#12	    1.0000	$X=8.81 $Y=3.48
Ri30	avC33#13	avC33#14	    1.0000	$X=8.81 $Y=2.66
Ri31	avC33#15	avC33#16	    1.0000	$X=8.81 $Y=0.56
Ri32	I7/avC13#13	I7/avC13#14	    1.1909	$X=9.77 $Y=7.2525
Ri33	I7/avC12#21	I7/avC12#22	    1.3262	$X=10.175 $Y=6.8875
Ri34	x_out_b_3#9	x_out_b_3#10	    0.5000	$X=10.485 $Y=5.13
Ri35	x_out_b_2#10	x_out_b_2#9	    0.5000	$X=10.485 $Y=3.93
Ri36	x_out_b_1#9	x_out_b_1#10	    0.5000	$X=10.485 $Y=2.21
Ri37	x_out_b_0#10	x_out_b_0#9	    0.5000	$X=10.485 $Y=1.01
Ri38	x_out_3#4	x_out_3#5	    0.7899	$X=10.66 $Y=5.13
Ri39	x_out_2#5	x_out_2#4	    0.7899	$X=10.66 $Y=3.93
Ri40	x_out_1#4	x_out_1#5	    0.7899	$X=10.66 $Y=2.21
Ri41	x_out_0#5	x_out_0#4	    0.7899	$X=10.66 $Y=1.01
Ri42	I7/avC11#18	I7/avC11#17	    0.7658	$X=10.7 $Y=6.55
Ri43	I7/avC12#24	I7/avC12#25	    0.2778	$X=10.725 $Y=8.3375
Ri44	I7/avC12#25	I7/avC12#23	    0.3943	$X=10.725 $Y=7.6375
Ri45	y_in_3#4	y_in_3#5	    1.2813	$X=10.96 $Y=5.43
Ri46	y_in_2#4	y_in_2#5	    1.2813	$X=10.96 $Y=3.63
Ri47	y_in_1#4	y_in_1#5	    1.2813	$X=10.96 $Y=2.51
Ri48	y_in_0#4	y_in_0#5	    1.2813	$X=10.96 $Y=0.71
Ri49	I7/avC13#15	I7/avC13#16	    1.4306	$X=11.14 $Y=7.9
Ri50	I7/avC14#8	I7/avC14#9	    1.3503	$X=11.14 $Y=6.9125
Ri51	I7/avC4#22	I7/avC4#19	    0.7572	$X=11.49 $Y=7.4875
Ri52	avC35#81	avC35#62	    1.0000	$X=11.935 $Y=5.28
Ri53	avC35#64	avC35#82	    1.0000	$X=11.935 $Y=3.78
Ri54	avC35#83	avC35#66	    1.0000	$X=11.935 $Y=2.36
Ri55	avC35#68	avC35#84	    1.0000	$X=11.935 $Y=0.86
Ri56	I7/avC5#21	I7/avC5#19	    1.3683	$X=11.955 $Y=7.3725
Ri57	avC36#97	avC36#78	    1.0000	$X=12.145 $Y=4.98
Ri58	avC36#79	avC36#98	    1.0000	$X=12.145 $Y=4.08
Ri59	avC36#99	avC36#82	    1.0000	$X=12.145 $Y=2.06
Ri60	avC36#83	avC36#100	    1.0000	$X=12.145 $Y=1.16
Ri61	avC34#57	avC34#52	    0.5000	$X=12.58 $Y=5.43
Ri62	avC34#53	avC34#58	    0.5000	$X=12.58 $Y=3.63
Ri63	avC34#59	avC34#54	    0.5000	$X=12.58 $Y=2.51
Ri64	avC34#55	avC34#60	    0.5000	$X=12.58 $Y=0.71
Ri65	VSS#214	VSS#210	8.333e-02	$X=12.99 $Y=8.91
Ri66	VSS#211	VSS#215	8.333e-02	$X=12.99 $Y=5.99
Ri67	VSS#216	VSS#212	8.333e-02	$X=12.99 $Y=3.07
Ri68	VSS#213	VSS#217	8.333e-02	$X=12.99 $Y=0.15
Ri69	RST#28	RST#29	    0.6165	$X=13.69 $Y=6.725
Ri70	avC33#40	avC33#41	    0.4885	$X=13.965 $Y=6.09
Ri72	avC33#41	avC33#42	    1.0061	$X=13.965 $Y=4.53
Ri74	avC33#42	avC33#43	    0.3876	$X=13.965 $Y=3.07
Ri76	avC33#43	avC33#44	    1.0061	$X=13.965 $Y=1.61
Ri77	avC33#44	avC33#48	    0.5000	$X=13.965 $Y=0.56
Ri78	avC34#56	avC34#61	    0.5618	$X=14.43 $Y=6.015
Ri79	avC34#61	avC34#62	    0.8611	$X=14.43 $Y=4.53
Ri80	avC34#62	avC34#63	    0.5325	$X=14.43 $Y=3.07
Ri81	avC34#63	avC34#64	    1.3611	$X=14.43 $Y=1.61
Ri82	avC31#17	avC31#18	    0.8222	$X=14.63 $Y=7.45
Ri83	avC35#80	avC35#85	    0.6335	$X=14.895 $Y=5.94
Ri84	avC35#85	avC35#86	    0.7215	$X=14.895 $Y=4.53
Ri85	avC35#86	avC35#87	    0.6775	$X=14.895 $Y=3.07
Ri86	avC35#87	avC35#88	    1.2215	$X=14.895 $Y=1.61
Ri87	x_out_3#6	x_out_3#7	    1.2115	$X=15.105 $Y=5.055
Ri88	x_out_2#6	x_out_2#7	    1.2115	$X=15.105 $Y=4.005
Ri89	x_out_1#6	x_out_1#7	    1.2115	$X=15.105 $Y=2.135
Ri90	x_out_0#6	x_out_0#7	    1.2115	$X=15.105 $Y=1.085
Ri91	x_out_b_3#11	x_out_b_3#12	    1.1363	$X=15.315 $Y=4.98
Ri92	x_out_b_2#11	x_out_b_2#12	    1.1363	$X=15.315 $Y=4.08
Ri93	x_out_b_1#11	x_out_b_1#12	    1.1363	$X=15.315 $Y=2.06
Ri94	x_out_b_0#11	x_out_b_0#12	    1.1363	$X=15.315 $Y=1.16
Ri95	y_out_b_3#9	y_out_b_3#10	    0.5000	$X=16.005 $Y=5.13
Ri96	y_out_b_2#10	y_out_b_2#9	    0.5000	$X=16.005 $Y=3.93
Ri97	y_out_b_1#9	y_out_b_1#10	    0.5000	$X=16.005 $Y=2.21
Ri98	y_out_b_0#10	y_out_b_0#9	    0.5000	$X=16.005 $Y=1.01
Ri99	avC32#17	avC32#18	    0.8214	$X=16.135 $Y=7.45
Ri100	y_out_3#5	y_out_3#4	    0.5000	$X=16.225 $Y=5.43
Ri101	y_out_2#4	y_out_2#5	    0.5000	$X=16.225 $Y=3.63
Ri102	y_out_1#5	y_out_1#4	    0.5000	$X=16.225 $Y=2.51
Ri103	y_out_0#4	y_out_0#5	    0.5000	$X=16.225 $Y=0.71
Ri104	avC36#96	avC36#101	    0.7871	$X=16.4 $Y=5.79
Ri105	avC36#101	avC36#102	    0.4262	$X=16.4 $Y=4.53
Ri106	avC36#102	avC36#103	    0.9846	$X=16.4 $Y=3.07
Ri107	avC36#103	avC36#104	    0.9262	$X=16.4 $Y=1.61
Rj1	x_in_3#4	x_in_3#2	    0.5000	$X=5.2 $Y=5.13
Rj2	x_in_2#2	x_in_2#5	    0.5000	$X=5.2 $Y=3.93
Rj3	x_in_1#4	x_in_1#2	    0.5000	$X=5.2 $Y=2.21
Rj4	x_in_0#2	x_in_0#5	    0.5000	$X=5.2 $Y=1.01
Rj5	I7/avC12#9	I7/avC12#6	    0.5612	$X=5.73 $Y=8.05
Rj6	I7/avC11#5	I7/avC11#2	    0.5612	$X=5.73 $Y=6.85
Rj8	avC35#21	avC35#17	    0.4858	$X=5.7725 $Y=5.28
Rj10	avC35#23	avC35#18	    0.4858	$X=5.7725 $Y=3.78
Rj12	avC35#25	avC35#19	    0.4858	$X=5.7725 $Y=2.36
Rj14	avC35#27	avC35#20	    0.4858	$X=5.7725 $Y=0.86
Rj16	avC36#29	avC36#18	    1.0755	$X=5.8875 $Y=4.98
Rj18	avC36#31	avC36#22	    1.0755	$X=5.8875 $Y=4.08
Rj20	avC36#33	avC36#24	    1.0755	$X=5.8875 $Y=2.06
Rj22	avC36#35	avC36#28	    1.0755	$X=5.8875 $Y=1.16
Rj23	I7/avC12#18	I7/avC12#13	    0.9382	$X=6.2925 $Y=6.7
Rj24	I7/avC12#13	I7/avC12#10	4.759e-02	$X=5.89 $Y=6.7
Rj25	I7/avC6#9	I7/avC6#8	    0.9858	$X=6.2525 $Y=8.2
Rj26	I7/avC6#8	I7/avC6#6	    0.7227	$X=5.66 $Y=8.2
Rj27	avC34#21	avC34#10	    1.0000	$X=6.82 $Y=5.43
Rj28	avC34#12	avC34#22	    1.0000	$X=6.82 $Y=3.63
Rj29	avC34#23	avC34#16	    1.0000	$X=6.82 $Y=2.51
Rj30	avC34#18	avC34#24	    1.0000	$X=6.82 $Y=0.71
Rj31	I7/avC13#10	I7/avC13#9	    0.3797	$X=6.5525 $Y=7
Rj32	I7/avC13#9	I7/avC13#7	    0.6958	$X=6.055 $Y=7
Rj33	CLK#16	CLK	    0.4885	$X=6.433 $Y=7.9
Rj34	CLK	CLK#17	8.702e-02	$X=5.9745 $Y=7.9
Rj35	CLK#17	CLK#8	    0.8301	$X=5.5825 $Y=7.9
Rj36	CLK#13	CLK#17	    0.5000	$X=5.87 $Y=7.9
Rj37	I5/avC5#16	I5/avC5#14	    0.6713	$X=6.82 $Y=5.13
Rj38	I5/avC5#14	I5/avC5#11	    1.1530	$X=6.1375 $Y=5.13
Rj39	I3/avC5#16	I3/avC5#14	    0.6713	$X=6.82 $Y=3.93
Rj40	I3/avC5#14	I3/avC5#11	    1.1530	$X=6.1375 $Y=3.93
Rj41	I0/avC5#16	I0/avC5#14	    0.6713	$X=6.82 $Y=2.21
Rj42	I0/avC5#14	I0/avC5#11	    1.1530	$X=6.1375 $Y=2.21
Rj43	I1/avC5#16	I1/avC5#14	    0.6713	$X=6.82 $Y=1.01
Rj44	I1/avC5#14	I1/avC5#11	    1.1530	$X=6.1375 $Y=1.01
Rj45	RST#17	RST#14	    1.6215	$X=6.3675 $Y=8.35
Rj46	RST#19	RST	    1.1324	$X=6.759 $Y=6.55
Rj47	RST	RST#15	    0.4843	$X=5.8655 $Y=6.55
Rj48	RST#15	RST	3.217e-02	$X=5.378 $Y=6.55
Rj49	RST	RST#22	4.405e-02	$X=5.3345 $Y=6.55
Rj50	RST#22	RST#12	4.895e-03	$X=5.265 $Y=6.5625
Rj51	RST#8	RST#22	    0.5000	$X=5.27 $Y=6.55
Rj52	I5/avC3#5	I5/avC3#4	    1.2979	$X=6.6025 $Y=4.83
Rj53	I3/avC3#5	I3/avC3#4	    1.2979	$X=6.6025 $Y=4.23
Rj54	I0/avC3#5	I0/avC3#4	    1.2979	$X=6.6025 $Y=1.91
Rj55	I1/avC3#5	I1/avC3#4	    1.2979	$X=6.6025 $Y=1.31
Rj56	I7/I1/avC5#16	I7/I1/avC5#14	    0.6713	$X=7.3 $Y=8.05
Rj57	I7/I1/avC5#14	I7/I1/avC5#11	    1.1530	$X=6.6175 $Y=8.05
Rj58	I7/I2/avC5#16	I7/I2/avC5#14	    0.6713	$X=7.3 $Y=6.85
Rj59	I7/I2/avC5#14	I7/I2/avC5#11	    1.1530	$X=6.6175 $Y=6.85
Rj60	I7/I1/avC3#5	I7/I1/avC3#4	    1.2979	$X=7.0825 $Y=7.75
Rj61	I7/I2/avC3#5	I7/I2/avC3#4	    1.2979	$X=7.0825 $Y=7.15
Rj62	avC35#45	avC35#41	    0.7415	$X=7.2775 $Y=4.98
Rj63	avC35#46	avC35#42	    0.7415	$X=7.2775 $Y=4.08
Rj64	avC35#47	avC35#43	    0.7415	$X=7.2775 $Y=2.06
Rj65	avC35#48	avC35#44	    0.7415	$X=7.2775 $Y=1.16
Rj66	avC36#53	avC36#49	    0.8398	$X=7.1725 $Y=5.28
Rj67	avC36#54	avC36#50	    0.8398	$X=7.1725 $Y=3.78
Rj68	avC36#55	avC36#51	    0.8398	$X=7.1725 $Y=2.36
Rj69	avC36#56	avC36#52	    0.8398	$X=7.1725 $Y=0.86
Rj70	I7/avC6#11	I7/avC6#10	    0.7415	$X=7.7575 $Y=7.9
Rj71	I7/avC12#20	I7/avC12#19	    0.7415	$X=7.7575 $Y=7
Rj72	CLK#18	CLK#15	    0.8398	$X=7.6525 $Y=8.2
Rj73	I7/avC13#12	I7/avC13#11	    0.8398	$X=7.6525 $Y=6.7
Rj74	VDD#1	VDD#2	    0.1667	$X=8.43 $Y=7.45
Rj75	VDD#3	VDD#4	    0.1667	$X=8.43 $Y=4.53
Rj76	VDD#5	VDD#6	    0.1667	$X=8.43 $Y=1.61
Rj77	avC33#17	avC33#9	    0.6328	$X=8.905 $Y=5.43
Rj78	avC33#18	avC33#12	    0.6328	$X=8.905 $Y=3.63
Rj79	avC33#19	avC33#13	    0.6328	$X=8.905 $Y=2.51
Rj80	avC33#20	avC33#16	    0.6328	$X=8.905 $Y=0.71
Rj81	I5/avC9#14	I5/avC9#11	    1.4528	$X=8.6475 $Y=5.13
Rj82	I3/avC9#14	I3/avC9#11	    1.4528	$X=8.6475 $Y=3.93
Rj83	I0/avC9#14	I0/avC9#11	    1.4528	$X=8.6475 $Y=2.21
Rj84	I1/avC9#14	I1/avC9#11	    1.4528	$X=8.6475 $Y=1.01
Rj85	I7/avC7#10	I7/avC7#8	    2.7512	$X=7.45 $Y=8.5
Rj86	I7/avC7#11	I7/avC7#9	    2.7519	$X=7.45 $Y=6.4
Rj87	I7/avC7#9	I7/avC7#6	    0.5558	$X=5.5275 $Y=6.4
Rj88	I5/avC6#12	I5/avC6#7	    0.5311	$X=8.9975 $Y=4.83
Rj89	I3/avC6#12	I3/avC6#7	    0.5311	$X=8.9975 $Y=4.23
Rj90	I0/avC6#12	I0/avC6#7	    0.5311	$X=8.9975 $Y=1.91
Rj91	I1/avC6#12	I1/avC6#7	    0.5311	$X=8.9975 $Y=1.31
Rj92	I7/I1/avC9#14	I7/I1/avC9#11	    1.4528	$X=9.1275 $Y=8.05
Rj93	I7/I2/avC9#14	I7/I2/avC9#11	    1.4528	$X=9.1275 $Y=6.85
Rj94	I5/avC6#13	I5/avC6#9	    0.7154	$X=9.795 $Y=5.38
Rj95	I3/avC6#13	I3/avC6#9	    0.7154	$X=9.795 $Y=3.68
Rj96	I0/avC6#13	I0/avC6#9	    0.7154	$X=9.795 $Y=2.46
Rj97	I1/avC6#13	I1/avC6#9	    0.7154	$X=9.795 $Y=0.76
Rj98	I7/I1/avC6#12	I7/I1/avC6#7	    0.5311	$X=9.4775 $Y=7.75
Rj99	I7/I2/avC6#12	I7/I2/avC6#7	    0.5311	$X=9.4775 $Y=7.15
Rj100	I7/I1/avC6#13	I7/I1/avC6#9	    0.7154	$X=10.275 $Y=8.3
Rj101	I7/I2/avC6#13	I7/I2/avC6#9	    0.7154	$X=10.275 $Y=6.6
Rj102	I7/avC11#17	I7/avC11#4	    3.1037	$X=8.235 $Y=6.25
Rj103	x_out_3#4	x_out_3#2	    1.0000	$X=10.66 $Y=5.43
Rj104	x_out_2#2	x_out_2#4	    1.0000	$X=10.66 $Y=3.63
Rj105	x_out_1#4	x_out_1#2	    1.0000	$X=10.66 $Y=2.51
Rj106	x_out_0#2	x_out_0#4	    1.0000	$X=10.66 $Y=0.71
Rj107	x_out_b_3#9	x_out_b_3#6	    1.1175	$X=10.365 $Y=5.13
Rj108	x_out_b_2#9	x_out_b_2#7	    1.1175	$X=10.365 $Y=3.93
Rj109	x_out_b_1#9	x_out_b_1#6	    1.1175	$X=10.365 $Y=2.21
Rj110	x_out_b_0#9	x_out_b_0#7	    1.1175	$X=10.365 $Y=1.01
Rj111	I7/avC12#24	I7/avC12#8	    3.1105	$X=8.2525 $Y=8.65
Rj112	y_in_3#2	y_in_3#5	    0.5000	$X=10.96 $Y=5.13
Rj113	y_in_2#4	y_in_2#2	    0.5000	$X=10.96 $Y=3.93
Rj114	y_in_1#2	y_in_1#5	    0.5000	$X=10.96 $Y=2.21
Rj115	y_in_0#4	y_in_0#2	    0.5000	$X=10.96 $Y=1.01
Rj116	I7/avC13#15	I7/avC13#18	    0.5000	$X=11.14 $Y=8.35
Rj117	I7/avC14#11	I7/avC14#9	    0.5000	$X=11.14 $Y=6.55
Rj119	I7/avC12#31	I7/avC12#25	    0.5000	$X=10.725 $Y=8.05
Rj120	I7/avC12#27	I7/avC12#31	    0.5000	$X=10.725 $Y=8.05
Rj121	I7/avC4#19	I7/avC4#8	    1.0000	$X=11.49 $Y=8.295
Rj123	avC35#62	avC35#57	    0.4858	$X=11.5325 $Y=5.28
Rj125	avC35#64	avC35#58	    0.4858	$X=11.5325 $Y=3.78
Rj127	avC35#66	avC35#59	    0.4858	$X=11.5325 $Y=2.36
Rj129	avC35#68	avC35#60	    0.4858	$X=11.5325 $Y=0.86
Rj130	I7/avC5#19	I7/avC5#11	    1.0000	$X=11.955 $Y=8.295
Rj132	avC36#78	avC36#66	    1.0755	$X=11.6475 $Y=4.98
Rj134	avC36#79	avC36#70	    1.0755	$X=11.6475 $Y=4.08
Rj136	avC36#82	avC36#72	    1.0755	$X=11.6475 $Y=2.06
Rj138	avC36#83	avC36#76	    1.0755	$X=11.6475 $Y=1.16
Rj139	avC34#52	avC34#38	    1.0000	$X=12.58 $Y=5.43
Rj140	avC34#40	avC34#53	    1.0000	$X=12.58 $Y=3.63
Rj141	avC34#54	avC34#44	    1.0000	$X=12.58 $Y=2.51
Rj142	avC34#46	avC34#55	    1.0000	$X=12.58 $Y=0.71
Rj143	I4/avC5#16	I4/avC5#14	    0.1713	$X=12.58 $Y=5.13
Rj144	I4/avC5#14	I4/avC5#11	    1.1530	$X=11.8975 $Y=5.13
Rj145	I6/avC5#16	I6/avC5#14	    0.1713	$X=12.58 $Y=3.93
Rj146	I6/avC5#14	I6/avC5#11	    1.1530	$X=11.8975 $Y=3.93
Rj147	I2/avC5#16	I2/avC5#14	    0.1713	$X=12.58 $Y=2.21
Rj148	I2/avC5#14	I2/avC5#11	    1.1530	$X=11.8975 $Y=2.21
Rj149	I8/avC5#16	I8/avC5#14	    0.1713	$X=12.58 $Y=1.01
Rj150	I8/avC5#14	I8/avC5#11	    1.1530	$X=11.8975 $Y=1.01
Rj151	I4/avC3#12	I4/avC3#4	    0.7979	$X=12.3625 $Y=4.83
Rj152	I6/avC3#12	I6/avC3#4	    0.7979	$X=12.3625 $Y=4.23
Rj153	I2/avC3#12	I2/avC3#4	    0.7979	$X=12.3625 $Y=1.91
Rj154	I8/avC3#12	I8/avC3#4	    0.7979	$X=12.3625 $Y=1.31
Rj155	VSS#210	VSS#182	    0.1667	$X=12.99 $Y=8.91
Rj156	VSS#15	VSS#211	    0.1667	$X=12.99 $Y=5.99
Rj157	VSS#212	VSS#88	    0.1667	$X=12.99 $Y=3.07
Rj158	VSS#146	VSS#213	    0.1667	$X=12.99 $Y=0.15
Rj159	I7/avC11#25	I7/avC11#24	    0.6316	$X=12.59 $Y=7
Rj160	I7/avC11#24	I7/avC11#26	    0.2372	$X=11.765 $Y=7
Rj161	I7/avC11#26	I7/avC11#27	    0.4393	$X=11.365 $Y=7
Rj162	I7/avC11#26	I7/avC11#23	3.966e-02	$X=11.51 $Y=7.06
Rj163	I7/avC11#27	I7/avC11#18	9.397e-03	$X=10.7125 $Y=6.8375
Rj164	I7/avC11#21	I7/avC11#27	    0.5000	$X=10.725 $Y=6.85
Rj165	I7/avC14#15	I7/avC14#16	    0.7582	$X=13.155 $Y=7.295
Rj166	I7/avC14#16	I7/avC14#17	    0.6021	$X=12.33 $Y=7.295
Rj167	I7/avC14#17	I7/avC14#8	    0.2859	$X=11.4125 $Y=7.295
Rj168	I7/avC14#16	I7/avC14#14	4.097e-02	$X=12.925 $Y=7.235
Rj169	I7/avC14#17	I7/avC14#13	    0.5133	$X=11.7095 $Y=7.255
Rj170	I7/avC4#17	I7/avC4#20	    0.7641	$X=13.02 $Y=6.69
Rj171	I7/avC4#20	I7/avC4#21	    0.2086	$X=12.5425 $Y=6.69
Rj172	I7/avC4#21	I7/avC4#22	    0.9558	$X=11.9225 $Y=6.69
Rj173	I7/avC4#15	I7/avC4#20	    0.5000	$X=12.755 $Y=6.66
Rj174	I7/avC4#10	I7/avC4#21	    0.5000	$X=12.355 $Y=6.69
Rj175	I7/avC5#17	I7/avC5#20	    0.7033	$X=12.3725 $Y=6.51
Rj176	I7/avC5#20	I7/avC5#21	    0.1019	$X=12.0475 $Y=6.51
Rj177	I7/avC5#21	I7/avC5#9	    0.6500	$X=11.8075 $Y=6.51
Rj178	I7/avC5#12	I7/avC5#20	    0.5000	$X=12.165 $Y=6.54
Rj179	RST#27	RST#28	    0.5000	$X=13.69 $Y=6.6
Rj180	avC35#69	avC35#61	    0.7415	$X=13.0375 $Y=4.98
Rj181	avC35#70	avC35#63	    0.7415	$X=13.0375 $Y=4.08
Rj182	avC35#71	avC35#65	    0.7415	$X=13.0375 $Y=2.06
Rj183	avC35#72	avC35#67	    0.7415	$X=13.0375 $Y=1.16
Rj184	avC36#85	avC36#77	    0.8398	$X=12.9325 $Y=5.28
Rj185	avC36#86	avC36#80	    0.8398	$X=12.9325 $Y=3.78
Rj186	avC36#87	avC36#81	    0.8398	$X=12.9325 $Y=2.36
Rj187	avC36#88	avC36#84	    0.8398	$X=12.9325 $Y=0.86
Rj188	avC33#40	avC33#33	    1.0000	$X=13.965 $Y=6.6
Rj189	avC34#50	avC34#56	    1.0000	$X=14.43 $Y=6.6
Rj190	avC31#14	avC31#12	    1.1531	$X=13.3175 $Y=8.59
Rj192	avC31#17	avC31#13	    1.0000	$X=14.63 $Y=8.3
Rj193	avC31#15	avC31#18	    0.5000	$X=14.63 $Y=6.6
Rj194	avC33#36	avC33#41	    1.4276	$X=14.665 $Y=5.43
Rj195	avC33#37	avC33#42	    1.4276	$X=14.665 $Y=3.63
Rj196	avC33#38	avC33#43	    1.4276	$X=14.665 $Y=2.51
Rj197	avC33#39	avC33#44	    1.4276	$X=14.665 $Y=0.71
Rj198	I4/avC9#14	I4/avC9#11	    1.4528	$X=14.4075 $Y=5.13
Rj199	I6/avC9#14	I6/avC9#11	    1.4528	$X=14.4075 $Y=3.93
Rj200	I2/avC9#14	I2/avC9#11	    1.4528	$X=14.4075 $Y=2.21
Rj201	I8/avC9#14	I8/avC9#11	    1.4528	$X=14.4075 $Y=1.01
Rj202	avC35#74	avC35#80	    1.0000	$X=14.895 $Y=6.6
Rj203	I4/avC6#12	I4/avC6#7	    0.5311	$X=14.7575 $Y=4.83
Rj204	I6/avC6#12	I6/avC6#7	    0.5311	$X=14.7575 $Y=4.23
Rj205	I2/avC6#12	I2/avC6#7	    0.5311	$X=14.7575 $Y=1.91
Rj206	I8/avC6#12	I8/avC6#7	    0.5311	$X=14.7575 $Y=1.31
Rj207	I4/avC6#13	I4/avC6#9	    0.7154	$X=15.555 $Y=5.38
Rj208	I6/avC6#13	I6/avC6#9	    0.7154	$X=15.555 $Y=3.68
Rj209	I2/avC6#13	I2/avC6#9	    0.7154	$X=15.555 $Y=2.46
Rj210	I8/avC6#13	I8/avC6#9	    0.7154	$X=15.555 $Y=0.76
Rj211	avC32#15	avC32#12	    2.0978	$X=13.8175 $Y=7.77
Rj213	avC32#17	avC32#14	    1.0000	$X=16.135 $Y=8.3
Rj214	avC32#13	avC32#18	    0.5000	$X=16.135 $Y=6.6
Rj215	avC36#96	avC36#90	    1.0000	$X=16.4 $Y=6.6
Rj216	clk_div4_out#4	clk_div4_out	4.895e-03	$X=16.4 $Y=7.77
Rj217	y_out_3#2	y_out_3#4	    1.0955	$X=16.3225 $Y=5.43
Rj218	y_out_2#2	y_out_2#4	    1.0955	$X=16.3225 $Y=3.63
Rj219	y_out_1#2	y_out_1#4	    1.0955	$X=16.3225 $Y=2.51
Rj220	y_out_0#2	y_out_0#4	    1.0955	$X=16.3225 $Y=0.71
Rj221	y_out_b_3#9	y_out_b_3#6	    1.0000	$X=16.005 $Y=5.13
Rj222	y_out_b_2#7	y_out_b_2#9	    1.0000	$X=16.005 $Y=3.93
Rj223	y_out_b_1#9	y_out_b_1#6	    1.0000	$X=16.005 $Y=2.21
Rj224	y_out_b_0#7	y_out_b_0#9	    1.0000	$X=16.005 $Y=1.01
Rj225	clk_div4_out_b	clk_div4_out_b#4	    0.3806
+ $X=15.303 $Y=8.59
Rk1	x_in_3#1	x_in_3#2	   75.3516	$X=5.215 $Y=5.37
Rk2	x_in_3#2	x_in_3#3	   62.2398	$X=5.215 $Y=4.96
Rk3	x_in_2#1	x_in_2#2	   62.2398	$X=5.215 $Y=4.1
Rk4	x_in_2#2	x_in_2#3	   75.3516	$X=5.215 $Y=3.69
Rk5	x_in_1#1	x_in_1#2	   75.3516	$X=5.215 $Y=2.45
Rk6	x_in_1#2	x_in_1#3	   62.2398	$X=5.215 $Y=2.04
Rk7	x_in_0#1	x_in_0#2	   62.2398	$X=5.215 $Y=1.18
Rk8	x_in_0#2	x_in_0#3	   75.3516	$X=5.215 $Y=0.77
Rk9	CLK#8	CLK#9	4.871e-03	$X=5.27 $Y=8
Rk10	CLK#10	CLK#11	4.871e-03	$X=5.305 $Y=8.02
Rk11	CLK#9	CLK#10	1.291e-02	$X=5.2875 $Y=8.01
Rk12	CLK#2	CLK#11	   45.0000	$X=5.305 $Y=8.02
Rk13	RST#8	RST#9	4.871e-03	$X=5.27 $Y=6.55
Rk14	RST#10	RST#11	4.871e-03	$X=5.305 $Y=6.57
Rk15	RST#9	RST#10	1.291e-02	$X=5.2875 $Y=6.56
Rk16	RST#2	RST#11	   45.0000	$X=5.305 $Y=6.57
Rk17	avC35	avC35#17	    0.5097	$X=5.37 $Y=5.2875
Rk18	avC35#18	avC35#3	    0.5097	$X=5.37 $Y=3.7725
Rk19	avC35#5	avC35#19	    0.5097	$X=5.37 $Y=2.3675
Rk20	avC35#20	avC35#7	    0.5097	$X=5.37 $Y=0.8525
Rk21	avC36#17	avC36#18	3.525e-03	$X=5.39 $Y=4.98
Rk22	avC36	avC36#19	3.525e-03	$X=5.37 $Y=5
Rk23	avC36#17	avC36#19	9.742e-03	$X=5.38 $Y=4.99
Rk24	avC36#3	avC36#20	3.525e-03	$X=5.37 $Y=4.06
Rk25	avC36#21	avC36#22	3.525e-03	$X=5.39 $Y=4.08
Rk26	avC36#20	avC36#21	9.742e-03	$X=5.38 $Y=4.07
Rk27	avC36#23	avC36#24	3.525e-03	$X=5.39 $Y=2.06
Rk28	avC36#5	avC36#25	3.525e-03	$X=5.37 $Y=2.08
Rk29	avC36#23	avC36#25	9.742e-03	$X=5.38 $Y=2.07
Rk30	avC36#7	avC36#26	3.525e-03	$X=5.37 $Y=1.14
Rk31	avC36#27	avC36#28	3.525e-03	$X=5.39 $Y=1.16
Rk32	avC36#26	avC36#27	9.742e-03	$X=5.38 $Y=1.15
Rk33	I7/avC6#5	I7/avC6#6	   75.2980	$X=5.435 $Y=8.425
Rk34	I7/avC6#6	I7/avC6#7	   31.3162	$X=5.435 $Y=8.015
Rk35	I7/avC7#5	I7/avC7#6	   31.5191	$X=5.435 $Y=6.735
Rk36	I7/avC7#6	I7/avC7#7	   75.0925	$X=5.435 $Y=6.325
Rk37	I5/avC5#8	I5/avC5#10	   75.4080	$X=5.68 $Y=5.389
Rk38	I5/avC5#10	I5/avC5#11	5.363e-02	$X=5.6425 $Y=5.13
Rk39	I5/avC5#11	I5/avC5#12	   62.2889	$X=5.56 $Y=4.975
Rk40	I5/avC5#11	I5/avC5#13	   75.4553	$X=5.56 $Y=5.355
Rk41	I5/avC5#9	I5/avC5#10	   62.0000	$X=5.68 $Y=5.16
Rk42	I3/avC5#8	I3/avC5#10	   75.4109	$X=5.68 $Y=3.69
Rk43	I3/avC5#10	I3/avC5#11	5.363e-02	$X=5.65 $Y=3.93
Rk44	I3/avC5#11	I3/avC5#12	   75.4681	$X=5.56 $Y=3.705
Rk45	I3/avC5#11	I3/avC5#13	   62.3032	$X=5.56 $Y=4.085
Rk46	I3/avC5#9	I3/avC5#10	   62.0000	$X=5.68 $Y=3.9
[...]
C1008	I0/avC6#10	VSS	4.52324e-17	$X=9.636 $Y=2.2305
C1009	I1/avC6#10	VSS	4.51144e-17	$X=9.636 $Y=1.323
C1010	VDD#185	VSS	2.63041e-17	$X=9.398 $Y=7.9465
C1011	VDD#184	VSS	2.63273e-17	$X=9.398 $Y=6.8155
C1012	VDD#57	VSS	8.99746e-17	$X=9.4525 $Y=4.946
C1013	VDD#56	VSS	8.97574e-17	$X=9.4525 $Y=4.112
C1014	VDD#117	VSS	8.99868e-17	$X=9.4525 $Y=2.202
C1015	VDD#116	VSS	8.97574e-17	$X=9.4525 $Y=1.3675
C1016	VDD#187	VSS	5.01663e-17	$X=9.134 $Y=7.9465
C1017	VDD#186	VSS	4.95272e-17	$X=9.134 $Y=6.8155
C1018	VDD#59	VSS	2.55306e-17	$X=8.929 $Y=5.0945
C1019	VDD#58	VSS	2.51369e-17	$X=8.929 $Y=3.9635
C1020	VDD#119	VSS	2.54085e-17	$X=8.929 $Y=2.2425
C1021	VDD#118	VSS	2.46972e-17	$X=8.929 $Y=1.1115
C1022	I7/I1/avC9#9	VSS	3.94699e-17	$X=8.812 $Y=8.041
C1023	I7/I2/avC9#9	VSS	3.71805e-17	$X=8.809 $Y=6.734
C1024	VDD#63	VSS	4.89045e-17	$X=8.6655 $Y=5.0945
C1025	VDD#60	VSS	4.96036e-17	$X=8.6655 $Y=3.9635
C1026	VDD#123	VSS	4.96036e-17	$X=8.6655 $Y=2.2425
C1027	VDD#120	VSS	4.91249e-17	$X=8.6655 $Y=1.1115
C1028	I7/I1/avC9#12	VSS	8.26843e-17	$X=8.633 $Y=7.647
C1029	I7/I2/avC9#13	VSS	8.47375e-17	$X=8.633 $Y=7.0795
C1030	I7/I1/avC3#11	VSS	7.94673e-17	$X=8.3605 $Y=7.698
C1031	I7/I2/avC3#6	VSS	7.94668e-17	$X=8.36 $Y=7.059
C1032	I5/avC9#9	VSS	4.10219e-17	$X=8.3425 $Y=5.186
C1033	I3/avC9#9	VSS	3.86393e-17	$X=8.3395 $Y=3.876
C1034	I0/avC9#9	VSS	4.10195e-17	$X=8.3425 $Y=2.3315
C1035	I1/avC9#9	VSS	3.86393e-17	$X=8.3395 $Y=1.018
C1036	VDD#189	VSS	9.04432e-17	$X=8.212 $Y=7.6905
C1037	VDD#188	VSS	9.12478e-17	$X=8.212 $Y=6.856
C1038	I5/avC9#12	VSS	8.28436e-17	$X=8.167 $Y=4.813
C1039	I3/avC9#13	VSS	8.29294e-17	$X=8.167 $Y=4.2455
C1040	I0/avC9#12	VSS	8.2897e-17	$X=8.167 $Y=1.979
C1041	I1/avC9#13	VSS	8.29294e-17	$X=8.167 $Y=1.4115
C1042	I7/I1/avC3#9	VSS	4.67095e-17	$X=8.015 $Y=7.736
C1043	I7/I2/avC3#11	VSS	4.66304e-17	$X=8.015 $Y=6.826
C1044	I5/avC3#11	VSS	7.98833e-17	$X=7.892 $Y=4.849
C1045	I3/avC3#6	VSS	7.96676e-17	$X=7.892 $Y=4.2095
C1046	I0/avC3#11	VSS	7.98833e-17	$X=7.892 $Y=1.9995
C1047	I1/avC3#6	VSS	7.96676e-17	$X=7.892 $Y=1.3605
C1048	VDD#191	VSS	9.5001e-17	$X=7.836 $Y=7.6905
C1049	VDD#190	VSS	9.51599e-17	$X=7.836 $Y=6.856
C1050	VDD#66	VSS	8.97688e-17	$X=7.761 $Y=4.946
C1051	VDD#62	VSS	8.99781e-17	$X=7.761 $Y=4.112
C1052	VDD#126	VSS	8.9778e-17	$X=7.761 $Y=2.202
C1053	VDD#122	VSS	8.99781e-17	$X=7.761 $Y=1.3675
C1054	I5/avC3#9	VSS	4.7138e-17	$X=7.563 $Y=4.984
C1055	I3/avC3#11	VSS	4.7025e-17	$X=7.563 $Y=4.074
C1056	I0/avC3#9	VSS	4.7138e-17	$X=7.563 $Y=2.232
C1057	I1/avC3#11	VSS	4.7025e-17	$X=7.563 $Y=1.322
C1058	VDD#70	VSS	9.5089e-17	$X=7.385 $Y=4.946
C1059	VDD#65	VSS	9.5089e-17	$X=7.385 $Y=4.112
C1060	VDD#130	VSS	9.5089e-17	$X=7.385 $Y=2.202
C1061	VDD#125	VSS	9.5089e-17	$X=7.385 $Y=1.3675
C1062	VDD#193	VSS	9.20254e-17	$X=6.6045 $Y=7.9465
C1063	VDD#192	VSS	9.09175e-17	$X=6.6045 $Y=6.8155
C1064	I7/I1/avC5#9	VSS	4.00488e-17	$X=6.2795 $Y=8.041
C1065	I7/I2/avC5#9	VSS	3.71138e-17	$X=6.274 $Y=6.734
C1066	VDD#72	VSS	9.2171e-17	$X=6.1355 $Y=5.0945
C1067	VDD#69	VSS	9.23671e-17	$X=6.1355 $Y=3.9635
C1068	VDD#132	VSS	9.23671e-17	$X=6.1355 $Y=2.2425
C1069	VDD#129	VSS	9.18838e-17	$X=6.1355 $Y=1.1115
C1070	I7/I1/avC5#12	VSS	8.72576e-17	$X=6.119 $Y=7.647
C1071	I7/I2/avC5#13	VSS	8.64132e-17	$X=6.119 $Y=7.0795
C1072	I7/avC12#7	VSS	5.78463e-17	$X=5.806 $Y=7.682
C1073	I5/avC5#9	VSS	4.06825e-17	$X=5.8105 $Y=5.186
C1074	I3/avC5#9	VSS	3.84095e-17	$X=5.8045 $Y=3.876
C1075	I0/avC5#9	VSS	4.07627e-17	$X=5.8105 $Y=2.3315
C1076	I1/avC5#9	VSS	3.83972e-17	$X=5.8045 $Y=1.018
C1077	I7/avC6#7	VSS	7.8924e-17	$X=5.631 $Y=7.6935
C1078	I7/avC7#5	VSS	9.12334e-17	$X=5.6625 $Y=6.9515
C1079	I5/avC5#12	VSS	8.69088e-17	$X=5.6535 $Y=4.813
C1080	I3/avC5#13	VSS	8.69463e-17	$X=5.6535 $Y=4.2455
C1081	I0/avC5#12	VSS	8.69142e-17	$X=5.6535 $Y=1.979
C1082	I1/avC5#13	VSS	8.69463e-17	$X=5.6535 $Y=1.4115
C1083	VDD#194	VSS	4.51962e-17	$X=5.423 $Y=7.6705
C1084	VDD#160	VSS	3.68599e-17	$X=5.423 $Y=7.0435
C1085	x_in_3#3	VSS	5.36698e-17	$X=5.3355 $Y=4.8185
C1086	x_in_2#1	VSS	5.34786e-17	$X=5.335 $Y=4.24
C1087	x_in_1#3	VSS	5.36698e-17	$X=5.3355 $Y=1.955
C1088	x_in_0#1	VSS	5.34786e-17	$X=5.335 $Y=1.376
C1089	y_out_3#1	VSS	4.82102e-17	$X=16.2665 $Y=5.619
C1090	y_out_2#3	VSS	4.87409e-17	$X=16.2665 $Y=3.4395
C1091	y_out_1#1	VSS	4.86448e-17	$X=16.2665 $Y=2.7905
C1092	y_out_0#3	VSS	4.69674e-17	$X=16.2665 $Y=0.611
C1093	clk_div4_out#1	VSS	8.56812e-17	$X=16.1555 $Y=8.3585
C1094	avC36#91	VSS	4.1753e-17	$X=16.194 $Y=6.272
C1095	y_out_b_3#8	VSS	4.79588e-17	$X=15.8135 $Y=5.6145
C1096	y_out_b_2#6	VSS	4.91428e-17	$X=15.8135 $Y=3.4435
C1097	y_out_b_1#8	VSS	4.91428e-17	$X=15.8135 $Y=2.7875
C1098	y_out_b_0#6	VSS	4.75928e-17	$X=15.8135 $Y=0.6165
C1099	I4/avC6#8	VSS	5.90398e-17	$X=15.156 $Y=5.609
C1100	I6/avC6#8	VSS	6.14721e-17	$X=15.156 $Y=3.4495
C1101	I2/avC6#8	VSS	6.14721e-17	$X=15.156 $Y=2.7915
C1102	I8/avC6#8	VSS	5.83977e-17	$X=15.156 $Y=0.632
C1103	avC35#75	VSS	4.23875e-17	$X=14.7375 $Y=6.272
C1104	avC34#51	VSS	3.22095e-17	$X=14.3345 $Y=6.358
C1105	I4/avC9#8	VSS	3.42582e-17	$X=13.9745 $Y=5.54
C1106	I6/avC9#8	VSS	3.62415e-17	$X=13.9725 $Y=3.524
C1107	I2/avC9#8	VSS	3.39789e-17	$X=13.9745 $Y=2.682
C1108	I8/avC9#8	VSS	3.64327e-17	$X=13.9725 $Y=0.668
C1109	avC33#34	VSS	4.88639e-17	$X=13.8385 $Y=6.2705
C1110	I4/avC9#13	VSS	5.61599e-17	$X=13.7505 $Y=5.526
C1111	I6/avC9#12	VSS	5.42961e-17	$X=13.7505 $Y=3.532
C1112	I2/avC9#13	VSS	5.43748e-17	$X=13.7505 $Y=2.7
C1113	I8/avC9#12	VSS	5.46639e-17	$X=13.7505 $Y=0.706
C1114	I4/avC3#5	VSS	3.38554e-17	$X=13.5285 $Y=5.5685
C1115	I6/avC3#9	VSS	3.41785e-17	$X=13.5285 $Y=3.49
C1116	I2/avC3#5	VSS	3.4092e-17	$X=13.5285 $Y=2.699
C1117	I8/avC3#9	VSS	3.31504e-17	$X=13.5285 $Y=0.621
C1118	I7/avC4#18	VSS	4.62541e-17	$X=13.2175 $Y=6.3635
C1119	I4/avC3#11	VSS	5.73321e-17	$X=13.033 $Y=5.607
C1120	I6/avC3#8	VSS	5.71164e-17	$X=13.033 $Y=3.451
C1121	I2/avC3#11	VSS	5.71444e-17	$X=13.033 $Y=2.7905
C1122	I8/avC3#8	VSS	5.72014e-17	$X=13.033 $Y=0.6345
C1123	VDD#168	VSS	9.06319e-17	$X=13.018 $Y=6.382
C1124	I7/avC5#18	VSS	4.99399e-17	$X=12.5525 $Y=6.2645
C1125	I4/avC5#15	VSS	6.38147e-17	$X=12.393 $Y=5.532
C1126	I6/avC5#15	VSS	6.3609e-17	$X=12.393 $Y=3.526
C1127	I2/avC5#15	VSS	6.35899e-17	$X=12.393 $Y=2.682
C1128	I8/avC5#15	VSS	6.21486e-17	$X=12.393 $Y=0.676
C1129	I7/avC4#11	VSS	7.21604e-17	$X=12.287 $Y=6.2805
C1130	VDD#174	VSS	1.02833e-16	$X=11.8445 $Y=6.3875
C1131	I7/avC5#10	VSS	2.89146e-17	$X=11.652 $Y=6.3475
C1132	avC32#9	VSS	1.10912e-16	$X=11.637 $Y=8.3585
C1133	I4/avC5#8	VSS	3.50093e-17	$X=11.4395 $Y=5.54
C1134	I6/avC5#8	VSS	3.52345e-17	$X=11.4395 $Y=3.524
C1135	I2/avC5#8	VSS	3.31132e-17	$X=11.4395 $Y=2.682
C1136	I8/avC5#8	VSS	3.45163e-17	$X=11.4395 $Y=0.668
C1137	I4/avC5#13	VSS	5.68683e-17	$X=11.2435 $Y=5.526
C1138	I6/avC5#12	VSS	5.52889e-17	$X=11.2435 $Y=3.532
C1139	I2/avC5#13	VSS	5.53391e-17	$X=11.2435 $Y=2.7
C1140	I8/avC5#12	VSS	5.54207e-17	$X=11.2435 $Y=0.706
C1141	I7/avC13#17	VSS	4.95152e-17	$X=11.1515 $Y=8.448
C1142	I7/avC14#12	VSS	4.86943e-17	$X=11.1515 $Y=6.268
C1143	y_in_3#1	VSS	5.60589e-17	$X=10.9845 $Y=5.534
C1144	y_in_2#3	VSS	5.61743e-17	$X=10.9845 $Y=3.5245
C1145	y_in_1#1	VSS	5.60478e-17	$X=10.9845 $Y=2.678
C1146	y_in_0#3	VSS	5.57432e-17	$X=10.9845 $Y=0.6685
C1147	I7/avC12#29	VSS	4.6839e-17	$X=10.7015 $Y=8.4415
C1148	I7/avC11#20	VSS	4.70171e-17	$X=10.7015 $Y=6.2705
C1149	x_out_3#1	VSS	5.5673e-17	$X=10.6865 $Y=5.619
C1150	x_out_2#3	VSS	5.44628e-17	$X=10.6865 $Y=3.4395
C1151	x_out_1#1	VSS	5.43541e-17	$X=10.6865 $Y=2.7905
C1152	x_out_0#3	VSS	5.34735e-17	$X=10.6865 $Y=0.611
C1153	x_out_b_3#8	VSS	5.59275e-17	$X=10.237 $Y=5.6145
C1154	x_out_b_2#6	VSS	5.15466e-17	$X=10.237 $Y=3.4435
C1155	x_out_b_1#8	VSS	5.15466e-17	$X=10.237 $Y=2.7875
C1156	x_out_b_0#6	VSS	5.26686e-17	$X=10.237 $Y=0.6165
C1157	I7/I1/avC6#8	VSS	6.12009e-17	$X=10.0615 $Y=8.4265
C1158	I7/I2/avC6#8	VSS	6.31421e-17	$X=10.0615 $Y=6.267
C1159	I5/avC6#8	VSS	6.23008e-17	$X=9.5985 $Y=5.609
C1160	I3/avC6#8	VSS	6.11344e-17	$X=9.5985 $Y=3.4495
C1161	I0/avC6#8	VSS	6.11344e-17	$X=9.5985 $Y=2.7915
C1162	I1/avC6#8	VSS	6.18199e-17	$X=9.5985 $Y=0.632
C1163	I7/I1/avC9#8	VSS	3.47516e-17	$X=8.8065 $Y=8.398
C1164	I7/I2/avC9#8	VSS	3.66239e-17	$X=8.8085 $Y=6.3795
C1165	I7/I1/avC9#13	VSS	5.43556e-17	$X=8.64 $Y=8.3525
C1166	I7/I2/avC9#12	VSS	5.4443e-17	$X=8.64 $Y=6.3585
C1167	I7/I1/avC3#6	VSS	3.27489e-17	$X=8.3405 $Y=8.4375
C1168	I7/I2/avC3#10	VSS	3.36885e-17	$X=8.3405 $Y=6.3595
C1169	I5/avC9#8	VSS	3.25298e-17	$X=8.337 $Y=5.54
C1170	I3/avC9#8	VSS	3.47183e-17	$X=8.339 $Y=3.524
C1171	I0/avC9#8	VSS	3.25272e-17	$X=8.337 $Y=2.682
C1172	I1/avC9#8	VSS	3.55019e-17	$X=8.339 $Y=0.668
C1173	I5/avC9#13	VSS	5.34076e-17	$X=8.175 $Y=5.526
C1174	I3/avC9#12	VSS	5.32182e-17	$X=8.175 $Y=3.532
C1175	I0/avC9#13	VSS	5.27548e-17	$X=8.175 $Y=2.7
C1176	I1/avC9#12	VSS	5.40722e-17	$X=8.175 $Y=0.706
C1177	I7/I1/avC3#12	VSS	5.8904e-17	$X=7.9395 $Y=8.424
C1178	I7/I2/avC3#9	VSS	5.99029e-17	$X=7.9395 $Y=6.268
C1179	I5/avC3#6	VSS	3.27164e-17	$X=7.8685 $Y=5.5685
C1180	I3/avC3#10	VSS	3.26025e-17	$X=7.869 $Y=3.49
C1181	I0/avC3#6	VSS	3.25071e-17	$X=7.8685 $Y=2.699
C1182	I1/avC3#10	VSS	3.32953e-17	$X=7.869 $Y=0.621
C1183	I5/avC3#12	VSS	5.92703e-17	$X=7.4765 $Y=5.607
C1184	I3/avC3#9	VSS	5.84655e-17	$X=7.4765 $Y=3.451
C1185	I0/avC3#12	VSS	5.84899e-17	$X=7.4765 $Y=2.7905
C1186	I1/avC3#9	VSS	5.90467e-17	$X=7.4765 $Y=0.6345
C1187	I7/I1/avC5#15	VSS	6.21546e-17	$X=7.239 $Y=8.3825
C1188	I7/I2/avC5#15	VSS	6.27781e-17	$X=7.239 $Y=6.3765
C1189	I5/avC5#15	VSS	6.39447e-17	$X=6.7705 $Y=5.532
C1190	I3/avC5#15	VSS	6.33343e-17	$X=6.7705 $Y=3.526
C1191	I0/avC5#15	VSS	6.33152e-17	$X=6.7705 $Y=2.682
C1192	I1/avC5#15	VSS	6.36454e-17	$X=6.7705 $Y=0.676
C1193	I7/I1/avC5#8	VSS	3.35547e-17	$X=6.2715 $Y=8.398
C1194	I7/I2/avC5#8	VSS	3.65319e-17	$X=6.275 $Y=6.3795
C1195	I7/I1/avC5#13	VSS	5.58177e-17	$X=6.133 $Y=8.3525
C1196	I7/I2/avC5#12	VSS	5.65756e-17	$X=6.133 $Y=6.3585
C1197	I7/avC12#5	VSS	5.77194e-17	$X=5.8205 $Y=8.39
C1198	I7/avC11#3	VSS	6.32831e-17	$X=5.8205 $Y=6.38
C1199	I5/avC5#8	VSS	3.32337e-17	$X=5.802 $Y=5.54
C1200	I3/avC5#8	VSS	3.4917e-17	$X=5.806 $Y=3.524
C1201	I0/avC5#8	VSS	3.28211e-17	$X=5.802 $Y=2.682
C1202	I1/avC5#8	VSS	3.63914e-17	$X=5.806 $Y=0.668
C1203	I7/avC6#5	VSS	5.82717e-17	$X=5.553 $Y=8.514
C1204	I7/avC7#7	VSS	3.83159e-17	$X=5.5205 $Y=6.233
C1205	I5/avC5#13	VSS	5.69311e-17	$X=5.668 $Y=5.526
C1206	I3/avC5#12	VSS	5.69787e-17	$X=5.668 $Y=3.532
C1207	I0/avC5#13	VSS	5.69925e-17	$X=5.668 $Y=2.7
C1208	I1/avC5#12	VSS	5.75804e-17	$X=5.668 $Y=0.706
C1209	x_in_3#1	VSS	4.96746e-17	$X=5.351 $Y=5.534
C1210	x_in_2#3	VSS	4.92926e-17	$X=5.351 $Y=3.5245
C1211	x_in_1#1	VSS	4.91349e-17	$X=5.351 $Y=2.678
C1212	x_in_0#3	VSS	5.06007e-17	$X=5.351 $Y=0.6685
C1213	I5/avC5#2	VSS	1.68064e-17	$X=7.489 $Y=5.369
C1214	I5/avC5#3	VSS	8.85348e-18	$X=7.287 $Y=5.3685
C1215	I3/avC5#2	VSS	1.64865e-17	$X=7.489 $Y=3.6905
C1216	I3/avC5#3	VSS	8.84604e-18	$X=7.287 $Y=3.69
C1217	I0/avC5#2	VSS	1.68035e-17	$X=7.489 $Y=2.4855
C1218	I0/avC5#3	VSS	9.19344e-18	$X=7.287 $Y=2.4855
C1219	I1/avC5#2	VSS	1.54046e-17	$X=7.489 $Y=0.807
C1220	I1/avC5#3	VSS	7.81321e-18	$X=7.287 $Y=0.8065
C1221	I7/I1/avC5#2	VSS	1.62745e-17	$X=7.963 $Y=8.2525
C1222	I7/I1/avC5#3	VSS	8.12086e-18	$X=7.761 $Y=8.252
C1223	I7/I2/avC5#2	VSS	1.57722e-17	$X=7.963 $Y=6.574
C1224	I7/I2/avC5#3	VSS	8.30894e-18	$X=7.761 $Y=6.573
C1225	I5/avC9#2	VSS	1.68615e-17	$X=9.6615 $Y=5.369
C1226	I5/avC9#3	VSS	1.05627e-17	$X=9.4595 $Y=5.3685
C1227	I3/avC9#2	VSS	1.90843e-17	$X=9.6615 $Y=3.6905
C1228	I3/avC9#3	VSS	1.02793e-17	$X=9.4595 $Y=3.69
C1229	I0/avC9#2	VSS	1.7694e-17	$X=9.6615 $Y=2.4855
C1230	I0/avC9#3	VSS	1.06226e-17	$X=9.4595 $Y=2.4855
C1231	I1/avC9#2	VSS	1.80938e-17	$X=9.6615 $Y=0.807
C1232	I1/avC9#3	VSS	9.28465e-18	$X=9.4595 $Y=0.8065
C1233	CLK#9	VSS	2.72847e-17	$X=5.295 $Y=8.0075
C1234	CLK#10	VSS	3.46191e-17	$X=5.3385 $Y=8.02
C1235	RST#9	VSS	1.78767e-17	$X=5.295 $Y=6.5695
C1236	I7/I1/avC9#2	VSS	1.80268e-17	$X=10.1355 $Y=8.2525
C1237	I7/I1/avC9#3	VSS	8.93933e-18	$X=9.933 $Y=8.252
C1238	I7/I2/avC9#2	VSS	1.7588e-17	$X=10.1355 $Y=6.574
C1239	I7/I2/avC9#3	VSS	9.25057e-18	$X=9.933 $Y=6.573
C1240	avC36#17	VSS	3.33927e-17	$X=5.414 $Y=4.9625
C1241	avC36#19	VSS	5.37954e-17	$X=5.443 $Y=5.04
C1242	avC36#20	VSS	5.39526e-17	$X=5.4435 $Y=4.019
C1243	avC36#21	VSS	3.31426e-17	$X=5.4135 $Y=4.0965
C1244	avC36#23	VSS	3.33927e-17	$X=5.414 $Y=2.055
C1245	avC36#26	VSS	5.39526e-17	$X=5.4435 $Y=1.126
C1246	avC36#27	VSS	3.31426e-17	$X=5.4135 $Y=1.1885
C1247	x_out_b_3#2	VSS	9.56972e-18	$X=10.576 $Y=5.374
C1248	x_out_b_2#2	VSS	1.01258e-17	$X=10.576 $Y=3.6855
C1249	x_out_b_1#2	VSS	9.54338e-18	$X=10.576 $Y=2.4735
C1250	x_out_b_0#2	VSS	1.01258e-17	$X=10.576 $Y=0.7845
C1251	I7/avC12#15	VSS	1.1156e-17	$X=11.053 $Y=8.275
C1252	I7/avC11#7	VSS	9.11932e-18	$X=11.053 $Y=6.586
C1253	I7/avC4#2	VSS	1.07937e-17	$X=11.5545 $Y=8.2755
C1254	avC34#9	VSS	4.56875e-17	$X=6.8565 $Y=5.3475
C1255	avC34#11	VSS	4.31998e-17	$X=6.843 $Y=5.4325
C1256	avC34#13	VSS	4.42838e-17	$X=6.8435 $Y=3.627
C1257	avC34#14	VSS	4.54081e-17	$X=6.856 $Y=3.7115
C1258	avC34#15	VSS	4.56875e-17	$X=6.8565 $Y=2.452
C1259	avC34#17	VSS	4.40014e-17	$X=6.843 $Y=2.528
C1260	avC34#19	VSS	4.33354e-17	$X=6.8435 $Y=0.723
C1261	avC34#20	VSS	4.54081e-17	$X=6.856 $Y=0.816
C1262	I7/avC5#2	VSS	1.08642e-17	$X=12.0165 $Y=8.2755
C1263	RST#16	VSS	4.54822e-17	$X=7.3325 $Y=8.2425
C1264	RST#18	VSS	4.31081e-17	$X=7.3205 $Y=8.3365
C1265	RST#20	VSS	4.3822e-17	$X=7.321 $Y=6.5305
C1266	I5/avC3#7	VSS	8.95815e-17	$X=7.8835 $Y=5.272
C1267	I5/avC3#8	VSS	5.78255e-17	$X=7.416 $Y=5.3185
C1268	I3/avC3#7	VSS	8.90588e-17	$X=7.8835 $Y=3.7875
C1269	I3/avC3#8	VSS	5.73032e-17	$X=7.416 $Y=3.74
C1270	I0/avC3#7	VSS	8.84922e-17	$X=7.8835 $Y=2.4195
C1271	I0/avC3#8	VSS	5.76132e-17	$X=7.416 $Y=2.456
C1272	I1/avC3#7	VSS	8.90355e-17	$X=7.8835 $Y=0.935
C1273	I1/avC3#8	VSS	5.68737e-17	$X=7.416 $Y=0.8775
C1274	I4/avC5#2	VSS	1.72096e-17	$X=13.177 $Y=5.369
C1275	I4/avC5#3	VSS	9.4067e-18	$X=12.9745 $Y=5.3685
C1276	I6/avC5#2	VSS	1.69032e-17	$X=13.177 $Y=3.6905
C1277	I6/avC5#3	VSS	8.8989e-18	$X=12.9745 $Y=3.69
C1278	I2/avC5#2	VSS	1.72204e-17	$X=13.177 $Y=2.4855
C1279	I2/avC5#3	VSS	9.2441e-18	$X=12.9745 $Y=2.4855
C1280	I8/avC5#2	VSS	1.58187e-17	$X=13.177 $Y=0.807
C1281	I8/avC5#3	VSS	7.92248e-18	$X=12.9745 $Y=0.8065
C1282	I7/I1/avC3#7	VSS	8.85272e-17	$X=8.352 $Y=8.1245
C1283	I7/I1/avC3#8	VSS	5.45279e-17	$X=7.8865 $Y=8.181
C1284	I7/I2/avC3#7	VSS	8.8374e-17	$X=8.352 $Y=6.64
C1285	I7/I2/avC3#8	VSS	5.6939e-17	$X=7.8865 $Y=6.6025
C1286	RST#24	VSS	1.10666e-17	$X=13.81 $Y=6.5865
C1287	avC33#22	VSS	1.02758e-17	$X=14.272 $Y=6.5865
C1288	avC31#2	VSS	1.34049e-17	$X=14.734 $Y=8.2755
C1289	avC31#6	VSS	1.24121e-17	$X=14.734 $Y=6.5865
C1290	x_out_b_3#5	VSS	4.23409e-17	$X=10.2265 $Y=5.3595
C1291	x_out_b_2#5	VSS	4.18048e-17	$X=10.2265 $Y=3.6985
C1292	x_out_b_1#5	VSS	4.18157e-17	$X=10.2265 $Y=2.49
C1293	x_out_b_0#5	VSS	4.18048e-17	$X=10.2265 $Y=0.829
C1294	I4/avC9#2	VSS	1.80861e-17	$X=15.3495 $Y=5.369
C1295	I4/avC9#3	VSS	9.38587e-18	$X=15.147 $Y=5.3685
C1296	I6/avC9#2	VSS	1.93232e-17	$X=15.3495 $Y=3.6905
C1297	I6/avC9#3	VSS	9.66976e-18	$X=15.147 $Y=3.69
C1298	I2/avC9#2	VSS	1.88947e-17	$X=15.3495 $Y=2.4855
C1299	I2/avC9#3	VSS	1.00184e-17	$X=15.147 $Y=2.4855
C1300	I8/avC9#2	VSS	1.88324e-17	$X=15.3495 $Y=0.807
C1301	I8/avC9#3	VSS	8.57272e-18	$X=15.147 $Y=0.8065
C1302	I7/avC12#26	VSS	3.99442e-17	$X=10.6985 $Y=8.2295
C1303	I7/avC11#19	VSS	4.0382e-17	$X=10.6985 $Y=6.5685
C1304	avC36#65	VSS	3.33927e-17	$X=11.1495 $Y=4.9625
C1305	avC36#67	VSS	5.39478e-17	$X=11.15 $Y=5.04
C1306	avC36#68	VSS	5.42049e-17	$X=11.15 $Y=4.019
C1307	avC36#69	VSS	3.31426e-17	$X=11.1495 $Y=4.0965
C1308	avC36#71	VSS	3.33927e-17	$X=11.1495 $Y=2.055
C1309	avC36#74	VSS	5.42049e-17	$X=11.15 $Y=1.126
C1310	avC36#75	VSS	3.31426e-17	$X=11.1495 $Y=1.1885
C1311	avC32#2	VSS	1.06106e-17	$X=16.2295 $Y=8.2755
C1312	avC32#6	VSS	1.11325e-17	$X=16.2295 $Y=6.5865
C1313	I7/avC12#31	VSS	3.6598e-17	$X=11.1185 $Y=8.0065
C1314	y_out_b_3#2	VSS	9.30973e-18	$X=16.2985 $Y=5.374
C1315	y_out_b_2#2	VSS	9.36511e-18	$X=16.2985 $Y=3.6855
C1316	y_out_b_1#2	VSS	9.30973e-18	$X=16.2985 $Y=2.4735
C1317	y_out_b_0#2	VSS	9.28398e-18	$X=16.2985 $Y=0.7845
C1318	I7/avC5#13	VSS	5.27031e-17	$X=12.1195 $Y=6.5455
C1319	I7/avC5#14	VSS	3.37027e-17	$X=12.202 $Y=6.556
C1320	avC34#37	VSS	4.57317e-17	$X=12.568 $Y=5.3475
C1321	avC34#39	VSS	4.30452e-17	$X=12.572 $Y=5.4325
C1322	avC34#41	VSS	4.43068e-17	$X=12.572 $Y=3.627
C1323	avC34#42	VSS	4.54553e-17	$X=12.568 $Y=3.7115
C1324	avC34#43	VSS	4.57317e-17	$X=12.568 $Y=2.452
C1325	avC34#45	VSS	4.40244e-17	$X=12.572 $Y=2.528
C1326	avC34#47	VSS	4.33354e-17	$X=12.572 $Y=0.723
C1327	avC34#48	VSS	4.54553e-17	$X=12.568 $Y=0.816
C1328	I7/avC4#13	VSS	3.28161e-17	$X=12.7065 $Y=6.6255
C1329	I7/avC4#14	VSS	5.04061e-17	$X=12.7765 $Y=6.6155
C1330	I4/avC3#6	VSS	8.846e-17	$X=13.51 $Y=5.272
C1331	I4/avC3#7	VSS	6.22788e-17	$X=13.0625 $Y=5.3185
C1332	I6/avC3#6	VSS	8.88915e-17	$X=13.51 $Y=3.7875
C1333	I6/avC3#7	VSS	6.22057e-17	$X=13.0625 $Y=3.74
C1334	I2/avC3#6	VSS	8.84628e-17	$X=13.51 $Y=2.4195
C1335	I2/avC3#7	VSS	6.2503e-17	$X=13.0625 $Y=2.456
C1336	I8/avC3#6	VSS	8.888e-17	$X=13.51 $Y=0.935
C1337	I8/avC3#7	VSS	6.18644e-17	$X=13.0625 $Y=0.8775
C1338	y_out_b_3#5	VSS	4.22312e-17	$X=15.888 $Y=5.3595
C1339	y_out_b_2#5	VSS	4.21111e-17	$X=15.888 $Y=3.6985
C1340	y_out_b_1#5	VSS	4.21208e-17	$X=15.888 $Y=2.49
C1341	y_out_b_0#5	VSS	4.18525e-17	$X=15.888 $Y=0.829
C1342	VDD#14	VSS	7.12216e-17	$X=15.77 $Y=4.5295
C1343	VDD#15	VSS	3.38146e-17	$X=15.552 $Y=4.529
C1344	VDD#18	VSS	3.2099e-17	$X=15.1935 $Y=4.529
C1345	VDD#19	VSS	4.94044e-17	$X=14.8115 $Y=4.529
C1346	VDD#20	VSS	3.87493e-17	$X=14.3765 $Y=4.529
C1347	VDD#21	VSS	1.08078e-16	$X=13.9125 $Y=4.529
C1348	VDD#23	VSS	2.80088e-17	$X=13.1985 $Y=4.529
C1349	VDD#24	VSS	8.76219e-17	$X=12.438 $Y=4.529
C1350	VDD#25	VSS	1.72761e-16	$X=11.958 $Y=4.529
C1351	VDD#27	VSS	3.68482e-17	$X=10.523 $Y=4.529
C1352	VDD#28	VSS	3.62255e-17	$X=10.08 $Y=4.529
C1353	VDD#29	VSS	2.78472e-17	$X=9.8295 $Y=4.529
C1354	VDD#30	VSS	4.357e-17	$X=9.4725 $Y=4.529
C1355	VDD#31	VSS	3.03414e-17	$X=9.009 $Y=4.529
C1356	VDD#61	VSS	7.30187e-17	$X=7.8845 $Y=4.529
C1357	VDD#64	VSS	5.42453e-17	$X=7.4905 $Y=4.529
C1358	VDD#68	VSS	2.68898e-16	$X=6.771 $Y=4.529
C1359	VDD#74	VSS	7.12372e-17	$X=15.77 $Y=1.8775
C1360	VDD#75	VSS	3.38146e-17	$X=15.552 $Y=1.7455
C1361	VDD#78	VSS	3.2099e-17	$X=15.1935 $Y=1.821
C1362	VDD#79	VSS	4.94044e-17	$X=14.8115 $Y=1.8225
C1363	VDD#80	VSS	3.87493e-17	$X=14.3765 $Y=1.826
C1364	VDD#81	VSS	1.08064e-16	$X=13.9125 $Y=1.874
C1365	VDD#83	VSS	2.79914e-17	$X=13.1985 $Y=1.758
C1366	VDD#84	VSS	8.76028e-17	$X=12.438 $Y=1.955
C1367	VDD#85	VSS	1.72728e-16	$X=11.958 $Y=2.0045
C1368	VDD#87	VSS	3.68482e-17	$X=10.523 $Y=1.817
C1369	VDD#88	VSS	3.62815e-17	$X=10.08 $Y=1.79
C1370	VDD#89	VSS	2.75738e-17	$X=9.8295 $Y=1.778
C1371	VDD#90	VSS	4.35981e-17	$X=9.4725 $Y=1.8225
C1372	VDD#91	VSS	3.03601e-17	$X=9.009 $Y=1.7825
C1373	VDD#121	VSS	7.30439e-17	$X=7.8845 $Y=1.879
C1374	VDD#124	VSS	5.4309e-17	$X=7.4905 $Y=1.8635
C1375	VDD#128	VSS	2.6895e-16	$X=7.0245 $Y=2.3725
C1376	VDD#134	VSS	9.04079e-17	$X=15.861 $Y=7.157
C1377	VDD#137	VSS	9.81217e-17	$X=14.5005 $Y=7.143
C1378	VDD#138	VSS	4.59497e-17	$X=13.9545 $Y=7.1375
C1379	VDD#139	VSS	2.71504e-17	$X=13.7375 $Y=7.3185
C1380	VDD#141	VSS	7.33122e-17	$X=12.9445 $Y=7.2025
C1381	VDD#142	VSS	5.26839e-17	$X=12.508 $Y=7.2295
C1382	VDD#143	VSS	5.63318e-17	$X=12.2295 $Y=7.2415
C1383	VDD#145	VSS	8.80842e-17	$X=11.8175 $Y=7.162
C1384	VDD#146	VSS	7.34299e-17	$X=11.443 $Y=7.3295
C1385	VDD#148	VSS	7.01468e-18	$X=10.9565 $Y=7.37
C1386	VDD#149	VSS	2.85296e-17	$X=10.5245 $Y=7.2895
C1387	VDD#150	VSS	3.47269e-17	$X=10.282 $Y=7.2805
C1388	VDD#151	VSS	5.76425e-17	$X=9.9175 $Y=7.236
C1389	VDD#152	VSS	4.00529e-17	$X=9.4885 $Y=7.2325
C1390	VDD#153	VSS	6.39106e-17	$X=9.208 $Y=7.287
C1391	VDD#155	VSS	3.12645e-17	$X=8.208 $Y=7.2815
C1392	VDD#156	VSS	8.6515e-17	$X=7.783 $Y=7.1035
C1393	VDD#157	VSS	1.43943e-16	$X=7.263 $Y=7.1395
C1394	VDD#159	VSS	1.14017e-16	$X=6.11 $Y=7.1405
C1395	I7/avC11#26	VSS	1.00678e-16	$X=11.3585 $Y=6.895
C1396	I7/avC14#16	VSS	9.37658e-17	$X=12.5485 $Y=7.177
C1397	I7/avC14#17	VSS	1.4314e-16	$X=11.684 $Y=7.1155
*
*
.ENDS data_reg_bank
*
