*
*
*
*                       LINUX           Wed Nov 27 12:54:30 2024
*
*
*
*  PROGRAM  advgen
*
*  Name           : advgen - Quantus - (64-bit)
*  Version        : 21.1.0-p101
*  Build Date     : Wed Mar 17 18:53:08 PDT 2021
*
*  HSPICE LIBRARY
*
*!LENGTH_UNITS METERS
*
*
*

*
.SUBCKT reg_1b VDD VSS CLK CLK_b D Q Q_b RST RSTB
*
*
*  caps2d version: 10
*
*
*       TRANSISTOR CARDS
*
*
MavD2_1	avC11#12	CLK_b#2	D#3	VSS#10
+ nmos1v#20ivpcell#20gpdk045	L=4.5e-08	W=1.2e-07
+ AD=1.68e-14	AS=1.68e-14	PD=5.2e-07	PS=5.2e-07
+ scc=0.002285 scb=0.0257428 sca=23.1354 sb=1.4e-07 sa=1.4e-07
MavD2_2	VSS#18	avC10#2	avC11#8	VSS#10
+ nmos1v#20ivpcell#20gpdk045	L=5.7e-07	W=1.2e-07
+ AD=1.68e-14	AS=1.68e-14	PD=5.2e-07	PS=5.2e-07
+ scc=1.9152e-05 scb=0.00313997 sca=5.65586 sb=1.4e-07 sa=1.4e-07
MavD2_3	VSS#17	RST#2	avC11#15	VSS#10	nmos1v#20ivpcell#20gpdk045
+ L=4.5e-08	W=1.2e-07
+ AD=1.68e-14	AS=1.68e-14	PD=5.2e-07	PS=5.2e-07
+ scc=1.90648e-05 scb=0.00298177 sca=4.83434 sb=1.4e-07 sa=1.4e-07
MavD2_4	avC10#8	avC11#6	VSS#16	VSS#10
+ nmos1v#20ivpcell#20gpdk045	L=4.5e-08	W=2.4e-07
+ AD=3.84e-14	AS=3.84e-14	PD=7.8e-07	PS=7.8e-07
+ scc=8.92912e-05 scb=0.00526492 sca=5.98119 sb=3.45e-07 sa=1.4e-07
MavD2_5	VSS#15	avC11#5	avC10#8	VSS#10
+ nmos1v#20ivpcell#20gpdk045	L=4.5e-08	W=2.4e-07
+ AD=3.36e-14	AS=3.36e-14	PD=7.8e-07	PS=7.8e-07
+ scc=8.92912e-05 scb=0.00526492 sca=5.95515 sb=1.4e-07 sa=3.45e-07
MavD2_6	avC13#12	CLK#4	avC10#9	VSS#10
+ nmos1v#20ivpcell#20gpdk045	L=4.5e-08	W=1.2e-07
+ AD=1.68e-14	AS=1.68e-14	PD=5.2e-07	PS=5.2e-07
+ scc=1.90648e-05 scb=0.00298169 sca=4.66627 sb=1.4e-07 sa=1.4e-07
MavD2_7	VSS#14	avC12#2	avC13#8	VSS#10
+ nmos1v#20ivpcell#20gpdk045	L=5.7e-07	W=1.2e-07
+ AD=1.68e-14	AS=1.68e-14	PD=5.2e-07	PS=5.2e-07
+ scc=1.90648e-05 scb=0.00298169 sca=4.71757 sb=1.4e-07 sa=1.4e-07
MavD2_8	avC12#8	avC13#6	VSS#13	VSS#10
+ nmos1v#20ivpcell#20gpdk045	L=4.5e-08	W=2.4e-07
+ AD=3.84e-14	AS=3.84e-14	PD=7.8e-07	PS=7.8e-07
+ scc=8.92912e-05 scb=0.0052665 sca=6.27443 sb=3.45e-07 sa=1.4e-07
MavD2_9	VSS#12	avC13#5	avC12#8	VSS#10
+ nmos1v#20ivpcell#20gpdk045	L=4.5e-08	W=2.4e-07
+ AD=3.36e-14	AS=3.36e-14	PD=7.8e-07	PS=7.8e-07
+ scc=8.92913e-05 scb=0.00527538 sca=6.47515 sb=1.4e-07 sa=3.45e-07
MavD2_10	Q_b#6	avC12#6	VSS#11	VSS#10
+ nmos1v#20ivpcell#20gpdk045	L=4.5e-08	W=2.4e-07
+ AD=3.36e-14	AS=3.36e-14	PD=7.6e-07	PS=7.6e-07
+ scc=8.99187e-05 scb=0.00592099 sca=7.78401 sb=1.4e-07 sa=1.4e-07
MavD2_11	Q#3	Q_b#4	VSS#1	VSS#10	nmos1v#20ivpcell#20gpdk045
+ L=4.5e-08	W=2.4e-07
+ AD=3.36e-14	AS=3.36e-14	PD=7.6e-07	PS=7.6e-07
+ scc=0.00235523 scb=0.028026 sca=24.4005 sb=1.4e-07 sa=1.4e-07
MavD10_1	avC11#13	CLK#2	D#1	VDD#10
+ pmos1v#20ivpcell#20gpdk045	L=4.5e-08	W=1.2e-07
+ AD=1.68e-14	AS=1.68e-14	PD=5.2e-07	PS=5.2e-07
+ scc=0.00239759 scb=0.0322327 sca=28.2489 sb=1.4e-07 sa=1.4e-07
MavD10_2	VDD#18	avC10#3	avC11#9	VDD#10
+ pmos1v#20ivpcell#20gpdk045	L=1.8e-07	W=1.2e-07
+ AD=1.68e-14	AS=1.68e-14	PD=5.2e-07	PS=5.2e-07
+ scc=0.00707768 scb=0.0325012 sca=48.8815 sb=1.4e-07 sa=1.4e-07
MavD10_3	avC10#10	avC11#7	VDD#17	VDD#10
+ pmos1v#20ivpcell#20gpdk045	L=4.5e-08	W=4.8e-07
+ AD=7.68e-14	AS=7.68e-14	PD=1.26e-06	PS=1.26e-06
+ scc=0.00214589 scb=0.0174739 sca=20.8427 sb=3.45e-07 sa=1.4e-07
MavD10_4	VDD#16	avC11	avC10#10	VDD#10
+ pmos1v#20ivpcell#20gpdk045	L=4.5e-08	W=4.8e-07
+ AD=6.72e-14	AS=6.72e-14	PD=1.26e-06	PS=1.26e-06
+ scc=0.00214589 scb=0.0174739 sca=20.8167 sb=1.4e-07 sa=3.45e-07
MavD10_5	avC13#13	CLK_b#4	avC10#5	VDD#10
+ pmos1v#20ivpcell#20gpdk045	L=4.5e-08	W=1.2e-07
+ AD=1.68e-14	AS=1.68e-14	PD=5.2e-07	PS=5.2e-07
+ scc=0.00013165 scb=0.00947162 sca=9.77982 sb=1.4e-07 sa=1.4e-07
MavD10_6	VDD#15	avC12#3	avC13#9	VDD#10
+ pmos1v#20ivpcell#20gpdk045	L=1.8e-07	W=1.2e-07
+ AD=1.68e-14	AS=1.68e-14	PD=5.2e-07	PS=5.2e-07
+ scc=0.00707741 scb=0.0320998 sca=47.3759 sb=1.4e-07 sa=1.4e-07
MavD10_7	avC13#15	RSTB#1	VDD#14	VDD#10
+ pmos1v#20ivpcell#20gpdk045	L=4.5e-08	W=1.2e-07
+ AD=1.68e-14	AS=1.68e-14	PD=5.2e-07	PS=5.2e-07
+ scc=0.00707741 scb=0.0320998 sca=47.472 sb=1.4e-07 sa=1.4e-07
MavD10_8	avC12#10	avC13#7	VDD#13	VDD#10
+ pmos1v#20ivpcell#20gpdk045	L=4.5e-08	W=4.8e-07
+ AD=7.68e-14	AS=7.68e-14	PD=1.26e-06	PS=1.26e-06
+ scc=0.00214589 scb=0.0174755 sca=21.1359 sb=3.45e-07 sa=1.4e-07
MavD10_9	VDD#12	avC13	avC12#10	VDD#10
+ pmos1v#20ivpcell#20gpdk045	L=4.5e-08	W=4.8e-07
+ AD=6.72e-14	AS=6.72e-14	PD=1.26e-06	PS=1.26e-06
+ scc=0.00214589 scb=0.0174844 sca=21.3367 sb=1.4e-07 sa=3.45e-07
MavD10_10	Q_b#8	avC12#4	VDD#11	VDD#10
+ pmos1v#20ivpcell#20gpdk045	L=4.5e-08	W=4.8e-07
+ AD=6.72e-14	AS=6.72e-14	PD=1.24e-06	PS=1.24e-06
+ scc=0.00214652 scb=0.01813 sca=22.6455 sb=1.4e-07 sa=1.4e-07
MavD10_11	Q#1	Q_b#1	VDD#1	VDD#10	pmos1v#20ivpcell#20gpdk045
+ L=4.5e-08	W=4.8e-07
+ AD=6.72e-14	AS=6.72e-14	PD=1.24e-06	PS=1.24e-06
+ scc=0.00441183 scb=0.040235 sca=39.262 sb=1.4e-07 sa=1.4e-07
*
*
*       RESISTOR AND CAP/DIODE CARDS
*
Rj1	D	D#2	    0.5506	$X=1.6005 $Y=0.89
Rj2	CLK_b#7	CLK_b	    0.2992	$X=2.2515 $Y=0.74
Rj3	CLK_b	CLK_b#5	    0.1881	$X=1.888 $Y=0.74
Rj4	CLK#8	CLK	    0.3632	$X=2.409 $Y=1.04
Rj5	CLK	CLK#7	    0.7142	$X=1.9505 $Y=1.04
Rj6	RST#3	RST	    0.9917	$X=2.7355 $Y=0.59
Rj7	avC11#16	avC11#14	    0.1719	$X=3.16 $Y=0.89
Rj8	avC11#14	avC11#11	    1.1551	$X=2.4775 $Y=0.89
Rj9	avC10#12	avC10#4	    0.8004	$X=2.9425 $Y=1.19
Rj10	CLK_b#8	CLK_b#6	    0.7438	$X=3.6175 $Y=1.04
Rj11	CLK#10	CLK#9	    0.8424	$X=3.5125 $Y=0.74
Rj12	RSTB#3	RSTB	    1.5182	$X=5.245 $Y=0.59
Rj13	avC13#14	avC13#11	    1.4542	$X=4.9875 $Y=0.89
Rj14	avC12#12	avC12#7	    0.5328	$X=5.3375 $Y=1.19
Rj15	avC12#13	avC12#9	    0.7161	$X=6.135 $Y=0.64
Rj16	Q#2	Q	    0.5147	$X=7 $Y=0.59
Rj17	Q_b	Q_b#7	    0.6093	$X=6.7155 $Y=0.89
Rk1	D#1	D#2	   62.2493	$X=1.555 $Y=1.06
Rk2	D#2	D#3	   75.3660	$X=1.555 $Y=0.65
Rk3	CLK_b#5	CLK_b#1	    0.5098	$X=1.71 $Y=0.7325
Rk4	CLK#1	CLK#5	3.571e-03	$X=1.71 $Y=1.02
Rk5	CLK#6	CLK#7	3.571e-03	$X=1.73 $Y=1.04
Rk6	CLK#5	CLK#6	9.846e-03	$X=1.72 $Y=1.03
Rk7	avC11#8	avC11#10	   75.4287	$X=2.02 $Y=0.65
Rk8	avC11#10	avC11#11	5.417e-02	$X=1.99 $Y=0.89
Rk9	avC11#11	avC11#12	   75.4866	$X=1.9 $Y=0.665
Rk10	avC11#11	avC11#13	   62.3146	$X=1.9 $Y=1.045
Rk11	avC11#9	avC11#10	   62.0000	$X=2.02 $Y=0.86
Rk12	avC10	avC10#4	   45.9373	$X=2.195 $Y=0.91
Rk13	CLK#8	CLK#9	    1.2255	$X=2.725 $Y=0.89
Rk14	CLK_b#6	CLK_b#7	    1.7878	$X=2.715 $Y=1.17
Rk15	avC11#14	avC11#15	   75.8441	$X=2.985 $Y=0.665
Rk16	RST#3	RST#4	4.421e-03	$X=3.16 $Y=0.59
Rk17	RST#5	RST#1	4.421e-03	$X=3.185 $Y=0.64
Rk18	RST#4	RST#5	2.462e-02	$X=3.1725 $Y=0.615
Rk19	avC11#4	avC11#16	    0.7458	$X=3.335 $Y=0.775
Rk20	avC10#5	avC10#6	   62.4789	$X=4.145 $Y=0.93
Rk21	avC10#6	avC10#7	    0.3121	$X=3.9125 $Y=0.64
Rk22	avC10#7	avC10#8	   37.7354	$X=3.68 $Y=0.53
Rk23	avC10#6	avC10#9	   75.1735	$X=4.145 $Y=0.53
Rk24	avC10#7	avC10#11	    0.3426	$X=3.68 $Y=0.84
Rk25	avC10#11	avC10#12	    0.6237	$X=3.68 $Y=1.11
Rk26	avC10#10	avC10#11	   15.5000	$X=3.68 $Y=1.04
Rk27	CLK_b#8	CLK_b#3	    0.5098	$X=4.3 $Y=1.0325
Rk28	CLK#10	CLK#3	    0.5098	$X=4.3 $Y=0.7325
Rk29	avC13#8	avC13#10	   75.4287	$X=4.61 $Y=0.65
Rk30	avC13#10	avC13#11	5.417e-02	$X=4.58 $Y=0.89
Rk31	avC13#11	avC13#12	   75.4866	$X=4.49 $Y=0.665
Rk32	avC13#11	avC13#13	   62.3106	$X=4.49 $Y=1.045
Rk33	avC13#9	avC13#10	   62.0000	$X=4.61 $Y=0.86
Rk34	avC12	avC12#7	   45.9373	$X=4.785 $Y=0.91
Rk35	RSTB#2	RSTB#3	4.177e-02	$X=5.317 $Y=0.646
Rk36	avC13#4	avC13#14	    0.2231	$X=5.545 $Y=0.75
Rk37	avC13#14	avC13#15	   62.0172	$X=5.435 $Y=0.8775
Rk38	avC12#8	avC12#9	   37.7142	$X=5.88 $Y=0.525
Rk39	avC12#9	avC12#11	    0.3213	$X=5.88 $Y=0.845
Rk40	avC12#11	avC12#12	    0.6237	$X=5.88 $Y=1.11
Rk41	avC12#10	avC12#11	   15.5000	$X=5.88 $Y=1.04
Rk42	avC12#5	avC12#13	   45.5282	$X=6.38 $Y=0.64
Rk43	Q_b#3	Q_b#5	    0.1260	$X=6.6725 $Y=0.64
Rk44	Q_b#5	Q_b#6	   37.7315	$X=6.55 $Y=0.515
Rk45	Q_b#5	Q_b#7	    0.1956	$X=6.55 $Y=0.775
Rk46	Q_b#7	Q_b#8	   15.6070	$X=6.55 $Y=0.97
Rk47	Q#1	Q#2	   15.8430	$X=7.015 $Y=0.73
Rk48	Q#2	Q#3	   37.6707	$X=7.015 $Y=0.5
Rk49	VDD#1	VDD#2	   15.9064	$X=6.81 $Y=1.305
Rk50	VDD#2	VDD#3	6.497e-02	$X=6.215 $Y=1.49
Rk51	VDD#3	VDD#4	    0.1027	$X=5.88 $Y=1.49
Rk52	VDD#4	VDD#5	    0.1165	$X=5.4425 $Y=1.49
Rk53	VDD#5	VDD#6	6.497e-02	$X=5.08 $Y=1.49
Rk54	VDD#6	VDD	    0.1671	$X=4.603 $Y=1.49
Rk55	VDD	VDD#7	    0.1004	$X=4.0995 $Y=1.49
Rk56	VDD#7	VDD#8	    0.1027	$X=3.68 $Y=1.49
Rk57	VDD#8	VDD#9	    0.2801	$X=2.9175 $Y=1.49
Rk58	VDD#9	VDD#10	   25.1671	$X=2.1375 $Y=1.49
Rk59	VDD#2	VDD#11	   15.7879	$X=6.345 $Y=1.305
Rk60	VDD#3	VDD#12	   15.7879	$X=6.085 $Y=1.305
Rk61	VDD#4	VDD#13	   15.7879	$X=5.675 $Y=1.305
Rk62	VDD#5	VDD#14	   62.4030	$X=5.21 $Y=1.125
Rk63	VDD#6	VDD#15	   62.4347	$X=4.95 $Y=1.125
Rk64	VDD#7	VDD#16	   15.7879	$X=3.885 $Y=1.305
Rk65	VDD#8	VDD#17	   15.7879	$X=3.475 $Y=1.305
Rk66	VDD#9	VDD#18	   62.4699	$X=2.36 $Y=1.125
Rk67	VSS#1	VSS#2	   37.8111	$X=6.81 $Y=0.215
Rk68	VSS#2	VSS#3	6.497e-02	$X=6.215 $Y=0.03
Rk69	VSS#3	VSS#4	    0.1027	$X=5.88 $Y=0.03
Rk70	VSS#4	VSS#5	8.384e-02	$X=5.5075 $Y=0.03
Rk71	VSS#5	VSS	    0.2652	$X=4.798 $Y=0.03
Rk72	VSS	VSS#6	    0.1004	$X=4.0995 $Y=0.03
Rk73	VSS#6	VSS#7	    0.1027	$X=3.68 $Y=0.03
Rk74	VSS#7	VSS#8	6.497e-02	$X=3.345 $Y=0.03
Rk75	VSS#8	VSS#9	    0.1165	$X=2.9825 $Y=0.03
Rk76	VSS#9	VSS#10	   20.9319	$X=2.3325 $Y=0.03
Rk77	VSS#2	VSS#11	   37.6926	$X=6.345 $Y=0.215
Rk78	VSS#3	VSS#12	   37.6926	$X=6.085 $Y=0.215
Rk79	VSS#4	VSS#13	   37.6926	$X=5.675 $Y=0.215
Rk80	VSS#5	VSS#14	   75.2260	$X=5.34 $Y=0.275
Rk81	VSS#6	VSS#15	   37.6926	$X=3.885 $Y=0.215
Rk82	VSS#7	VSS#16	   37.6926	$X=3.475 $Y=0.215
Rk83	VSS#8	VSS#17	   75.2307	$X=3.215 $Y=0.275
Rk84	VSS#9	VSS#18	   75.2282	$X=2.75 $Y=0.275
Rl1	CLK#1	CLK#2	   87.8980	$X=1.6575 $Y=1.12
Rl2	CLK_b#1	CLK_b#2	  126.3596	$X=1.6575 $Y=0.57
Rl3	avC10	avC10#2	    9.7184	$X=2.385 $Y=0.5365
Rl4	avC10	avC10#3	   11.2742	$X=2.19 $Y=0.7435
Rl5	RST#1	RST#2	   98.1035	$X=3.1125 $Y=0.53
Rl6	avC11	avC11#2	   56.5719	$X=3.7825 $Y=0.7505
Rl7	avC11#2	avC11#3	   23.6889	$X=3.68 $Y=0.64
Rl8	avC11#3	avC11#4	   50.6296	$X=3.554 $Y=0.64
Rl9	avC11#2	avC11#5	   56.5719	$X=3.7825 $Y=0.53
Rl10	avC11#3	avC11#6	   55.6157	$X=3.5775 $Y=0.53
Rl11	avC11#3	avC11#7	   55.6157	$X=3.5775 $Y=0.75
Rl12	CLK_b#3	CLK_b#4	   87.8980	$X=4.2475 $Y=1.12
Rl13	CLK#3	CLK#4	  126.3596	$X=4.2475 $Y=0.57
Rl14	avC12	avC12#2	    9.7184	$X=4.975 $Y=0.5365
Rl15	avC12	avC12#3	   11.2742	$X=4.78 $Y=0.7435
Rl16	RSTB#1	RSTB#2	   74.5009	$X=5.3125 $Y=0.7755
Rl17	avC13	avC13#2	   56.5719	$X=5.9825 $Y=0.7505
Rl18	avC13#2	avC13#3	   23.6889	$X=5.88 $Y=0.64
Rl19	avC13#3	avC13#4	   50.6296	$X=5.754 $Y=0.64
Rl20	avC13#2	avC13#5	   56.5719	$X=5.9825 $Y=0.53
Rl21	avC13#3	avC13#6	   55.6157	$X=5.7775 $Y=0.53
Rl22	avC13#3	avC13#7	   55.6157	$X=5.7775 $Y=0.75
Rl23	avC12#4	avC12#5	   49.0903	$X=6.4475 $Y=0.7445
Rl24	avC12#5	avC12#6	   49.0903	$X=6.4475 $Y=0.53
Rl25	Q_b#1	Q_b#2	   56.5719	$X=6.9125 $Y=0.7505
Rl26	Q_b#2	Q_b#3	   50.0130	$X=6.8875 $Y=0.64
Rl27	Q_b#2	Q_b#4	   56.5719	$X=6.9125 $Y=0.53
*
*       CAPACITOR CARDS
*
*
C1	VDD	VSS	6.65618e-17	$X=4.3915 $Y=0.878
C2	CLK	VSS	1.10708e-16	$X=2.5605 $Y=0.8695
C3	CLK_b	VSS	9.94085e-17	$X=2.3975 $Y=0.6415
C4	D	VSS	5.93567e-17	$X=1.876 $Y=0.83
C5	Q	VSS	3.41728e-17	$X=6.719 $Y=0.5335
C6	Q_b	VSS	3.87369e-17	$X=6.554 $Y=0.7665
C7	RST	VSS	3.57973e-16	$X=2.942 $Y=0.389
C8	RSTB	VSS	4.1913e-16	$X=3.755 $Y=0.2115
C9	avC13	VSS	2.49582e-17	$X=5.7745 $Y=0.925
C10	avC12	VSS	1.07762e-16	$X=4.787 $Y=0.4715
C11	avC11	VSS	2.86154e-17	$X=3.8715 $Y=0.925
C12	avC10	VSS	1.08719e-16	$X=2.9445 $Y=0.4715
C13	Q_b#1	VSS	2.89287e-17	$X=6.579 $Y=0.925
C14	avC12#4	VSS	3.22906e-17	$X=6.1745 $Y=0.921
C15	avC13#7	VSS	2.73546e-17	$X=5.597 $Y=0.9245
C16	RSTB#1	VSS	1.77276e-17	$X=5.2625 $Y=0.8475
C17	avC12#3	VSS	3.28115e-17	$X=4.708 $Y=0.698
C18	CLK_b#4	VSS	2.02564e-17	$X=4.259 $Y=1.1755
C19	avC11#7	VSS	2.77215e-17	$X=3.6945 $Y=0.9245
C20	avC10#3	VSS	3.13056e-17	$X=2.675 $Y=0.698
C21	CLK#2	VSS	1.71437e-17	$X=1.826 $Y=1.1755
C22	Q_b#4	VSS	2.30202e-17	$X=6.6945 $Y=0.3075
C23	avC12#6	VSS	2.4415e-17	$X=6.268 $Y=0.3095
C24	avC13#5	VSS	1.87734e-17	$X=5.8465 $Y=0.3075
C25	avC13#6	VSS	2.29339e-17	$X=5.6595 $Y=0.3075
C26	avC12#2	VSS	7.19302e-17	$X=4.73 $Y=0.2265
C27	CLK#4	VSS	2.51814e-17	$X=4.261 $Y=0.387
C28	avC11#5	VSS	2.13781e-17	$X=3.8405 $Y=0.3075
C29	avC11#6	VSS	2.29018e-17	$X=3.6535 $Y=0.3075
C30	RST#2	VSS	2.5345e-17	$X=3.196 $Y=0.3715
C31	avC10#2	VSS	7.67138e-17	$X=3.343 $Y=0.2265
C32	CLK_b#2	VSS	2.83706e-17	$X=1.856 $Y=0.387
C33	Q_b#3	VSS	5.72552e-17	$X=6.4145 $Y=0.54
C34	avC12#5	VSS	1.97289e-17	$X=6.2745 $Y=0.587
C35	avC13#4	VSS	7.08725e-17	$X=5.454 $Y=0.527
C36	RSTB#2	VSS	4.4456e-17	$X=5.2035 $Y=0.6065
C37	CLK_b#3	VSS	2.58244e-17	$X=4.264 $Y=0.9535
C38	CLK#3	VSS	3.05377e-17	$X=4.266 $Y=0.6135
C39	avC11#4	VSS	8.13636e-17	$X=3.6575 $Y=0.5255
C40	RST#1	VSS	6.67689e-17	$X=3.3655 $Y=0.5575
C41	CLK#1	VSS	2.9203e-17	$X=1.893 $Y=0.9535
C42	CLK_b#1	VSS	3.11638e-17	$X=1.9215 $Y=0.6135
C43	Q#2	VSS	3.94984e-17	$X=6.767 $Y=0.5585
C44	Q_b#7	VSS	4.09333e-17	$X=6.255 $Y=0.7495
C45	avC12#13	VSS	7.55012e-17	$X=5.957 $Y=0.522
C46	avC12#9	VSS	6.08323e-17	$X=5.6265 $Y=0.53
C47	avC12#12	VSS	9.36545e-17	$X=5.4165 $Y=0.8875
C48	avC13#14	VSS	1.34367e-16	$X=5.121 $Y=0.6155
C49	RSTB#3	VSS	1.48636e-16	$X=4.943 $Y=0.356
C50	avC12#7	VSS	1.39882e-16	$X=4.7755 $Y=0.8125
C51	avC13#11	VSS	1.09552e-16	$X=4.5605 $Y=0.631
C52	CLK_b#8	VSS	1.73077e-16	$X=4.238 $Y=0.715
C53	CLK#10	VSS	1.957e-16	$X=4.227 $Y=0.492
C54	avC10#12	VSS	1.93501e-16	$X=3.798 $Y=0.836
C55	avC11#16	VSS	1.05437e-16	$X=3.478 $Y=0.7305
C56	RST#3	VSS	1.41565e-16	$X=3.24 $Y=0.49
C57	avC11#14	VSS	2.50256e-16	$X=3.3615 $Y=0.598
C58	CLK_b#6	VSS	3.19779e-16	$X=3.542 $Y=0.6885
C59	CLK#8	VSS	1.84203e-16	$X=3.0315 $Y=0.8085
C60	CLK#9	VSS	2.7238e-16	$X=3.398 $Y=0.531
C61	CLK_b#7	VSS	2.25507e-16	$X=2.976 $Y=0.634
C62	avC10#4	VSS	2.21316e-16	$X=3.0525 $Y=0.767
C63	avC11#11	VSS	2.32034e-16	$X=2.768 $Y=0.616
C64	CLK#7	VSS	1.08676e-16	$X=2.2575 $Y=0.8465
C65	CLK_b#5	VSS	1.88329e-16	$X=2.3255 $Y=0.561
C66	D#2	VSS	1.12555e-16	$X=2.0725 $Y=0.719
C67	VDD#10	VSS	1.0718e-15	$X=4.448 $Y=0.029
C68	Q#1	VSS	7.58588e-17	$X=6.098 $Y=0.6685
C69	VDD#1	VSS	1.15504e-16	$X=5.482 $Y=0.5075
C70	Q_b#8	VSS	5.20132e-17	$X=5.871 $Y=0.7435
C71	VDD#11	VSS	5.97423e-17	$X=5.6845 $Y=0.69
C72	VDD#12	VSS	5.38109e-17	$X=5.509 $Y=0.69
C73	avC12#10	VSS	4.30382e-17	$X=5.3955 $Y=0.677
C74	VDD#13	VSS	8.70705e-17	$X=5.249 $Y=0.69
C75	VDD#14	VSS	2.55064e-17	$X=5.0865 $Y=0.7635
C76	VDD#15	VSS	4.841e-17	$X=4.8615 $Y=0.7635
C77	avC13#9	VSS	3.67589e-17	$X=4.591 $Y=0.6995
C78	avC13#13	VSS	8.14024e-17	$X=4.421 $Y=0.9595
C79	avC10#5	VSS	7.69026e-17	$X=4.201 $Y=0.9665
C80	VDD#16	VSS	8.87075e-17	$X=4.078 $Y=0.69
C81	avC10#10	VSS	4.6256e-17	$X=3.94 $Y=0.675
C82	VDD#17	VSS	9.35227e-17	$X=3.818 $Y=0.69
C83	VDD#18	VSS	8.95461e-17	$X=2.7035 $Y=0.7635
C84	avC11#9	VSS	3.75477e-17	$X=2.4 $Y=0.6995
C85	avC11#13	VSS	8.38694e-17	$X=2.357 $Y=0.9595
C86	D#1	VSS	5.08442e-17	$X=1.9685 $Y=1.029
C87	Q#3	VSS	4.63391e-17	$X=6.4625 $Y=0.293
C88	Q_b#6	VSS	4.63657e-17	$X=6.0905 $Y=0.2945
C89	avC12#8	VSS	5.71576e-17	$X=5.544 $Y=0.2905
C90	avC13#8	VSS	3.66942e-17	$X=4.588 $Y=0.393
C91	avC13#12	VSS	5.52849e-17	$X=4.4215 $Y=0.3655
C92	avC10#9	VSS	3.09116e-17	$X=4.188 $Y=0.3795
C93	avC10#8	VSS	5.61423e-17	$X=3.86 $Y=0.291
C94	avC11#15	VSS	6.18864e-17	$X=3.248 $Y=0.388
C95	avC11#8	VSS	3.56783e-17	$X=2.4085 $Y=0.393
C96	avC11#12	VSS	5.70599e-17	$X=2.395 $Y=0.3655
C97	D#3	VSS	5.03006e-17	$X=2.0175 $Y=0.393
C98	avC11#2	VSS	1.57192e-17	$X=3.846 $Y=0.581
C99	avC11#3	VSS	7.63784e-18	$X=3.661 $Y=0.5805
C100	avC13#2	VSS	1.8851e-17	$X=5.834 $Y=0.581
C101	avC13#3	VSS	8.50031e-18	$X=5.6485 $Y=0.5805
C102	CLK#5	VSS	5.42599e-17	$X=1.928 $Y=0.905
C103	Q_b#2	VSS	9.69367e-18	$X=6.7825 $Y=0.6075
C104	RST#4	VSS	4.28859e-17	$X=3.2165 $Y=0.557
C105	avC10#6	VSS	8.88253e-17	$X=4.1945 $Y=0.6135
C106	avC10#7	VSS	5.34492e-17	$X=3.7905 $Y=0.5895
C107	Q_b#5	VSS	4.02359e-17	$X=6.2805 $Y=0.5655
C108	VDD#2	VSS	2.30103e-17	$X=5.622 $Y=0.9165
C109	VDD#3	VSS	1.64277e-17	$X=5.5415 $Y=0.9865
C110	VDD#4	VSS	2.44948e-17	$X=5.194 $Y=0.901
C111	VDD#5	VSS	2.26722e-17	$X=4.925 $Y=0.871
C112	VDD#6	VSS	5.39496e-17	$X=4.626 $Y=0.859
C113	VDD#7	VSS	2.16531e-17	$X=4.0995 $Y=0.915
C114	VDD#8	VSS	4.88832e-17	$X=3.8475 $Y=0.7215
C115	VDD#9	VSS	9.19831e-17	$X=3.63 $Y=0.6945
*
*
.ENDS reg_1b
*
